# generated using pymatgen
data_La16Cu28H320C400I20N32Cl5.024O160
_symmetry_space_group_name_H-M   'P 1'
_cell_length_a   10.07300000
_cell_length_b   20.97000000
_cell_length_c   54.08560000
_cell_angle_alpha   95.73710000
_cell_angle_beta   90.00000000
_cell_angle_gamma   90.00000000
_symmetry_Int_Tables_number   1
_chemical_formula_structural   La16Cu28H320C400I20N32Cl5.024O160
_chemical_formula_sum   'La16 Cu28 H320 C400 I20 N32 Cl5.024 O160'
_cell_volume   11367.32012356
_cell_formula_units_Z   1
loop_
 _symmetry_equiv_pos_site_id
 _symmetry_equiv_pos_as_xyz
  1  'x, y, z'
loop_
 _atom_site_type_symbol
 _atom_site_label
 _atom_site_symmetry_multiplicity
 _atom_site_fract_x
 _atom_site_fract_y
 _atom_site_fract_z
 _atom_site_occupancy
  La  La0  1  0.328570  0.114680  0.758490  1.0
  La  La1  1  0.671430  0.885320  0.241520  1.0
  La  La2  1  0.328570  0.385320  0.241520  1.0
  La  La3  1  0.671430  0.614680  0.758490  1.0
  La  La4  1  0.828570  0.614680  0.258480  1.0
  La  La5  1  0.171430  0.385320  0.741520  1.0
  La  La6  1  0.828570  0.885320  0.741520  1.0
  La  La7  1  0.171430  0.114680  0.258480  1.0
  La  La8  1  0.952080  0.080410  0.727810  1.0
  La  La9  1  0.047920  0.919590  0.272190  1.0
  La  La10  1  0.952080  0.419590  0.272190  1.0
  La  La11  1  0.047920  0.580410  0.727810  1.0
  La  La12  1  0.452080  0.580410  0.227810  1.0
  La  La13  1  0.547920  0.419590  0.772190  1.0
  La  La14  1  0.452080  0.919590  0.772190  1.0
  La  La15  1  0.547920  0.080410  0.227810  1.0
  Cu  Cu16  1  0.056830  0.360880  0.980530  1.0
  Cu  Cu17  1  0.943170  0.639120  0.019470  1.0
  Cu  Cu18  1  0.056830  0.139120  0.019470  1.0
  Cu  Cu19  1  0.943170  0.860880  0.980530  1.0
  Cu  Cu20  1  0.556830  0.860880  0.480530  1.0
  Cu  Cu21  1  0.443170  0.139120  0.519470  1.0
  Cu  Cu22  1  0.556830  0.639120  0.519470  1.0
  Cu  Cu23  1  0.443170  0.360880  0.480530  1.0
  Cu  Cu24  1  0.938560  0.452780  0.011950  1.0
  Cu  Cu25  1  0.061440  0.547220  0.988050  1.0
  Cu  Cu26  1  0.938560  0.047220  0.988050  1.0
  Cu  Cu27  1  0.061440  0.952780  0.011950  1.0
  Cu  Cu28  1  0.438560  0.952780  0.511950  1.0
  Cu  Cu29  1  0.561440  0.047220  0.488050  1.0
  Cu  Cu30  1  0.438560  0.547220  0.488050  1.0
  Cu  Cu31  1  0.561440  0.452780  0.511950  1.0
  Cu  Cu32  1  0.526400  0.250000  0.000000  1.0
  Cu  Cu33  1  0.473600  0.750000  0.000000  1.0
  Cu  Cu34  1  0.026400  0.750000  0.500000  1.0
  Cu  Cu35  1  0.973600  0.250000  0.500000  1.0
  Cu  Cu36  1  0.956800  0.218190  0.980190  0.5
  Cu  Cu37  1  0.043200  0.781810  0.019810  0.5
  Cu  Cu38  1  0.956800  0.281810  0.019810  0.5
  Cu  Cu39  1  0.043200  0.718190  0.980190  0.5
  Cu  Cu40  1  0.456800  0.718190  0.480190  0.5
  Cu  Cu41  1  0.543200  0.281810  0.519810  0.5
  Cu  Cu42  1  0.456800  0.781810  0.519810  0.5
  Cu  Cu43  1  0.543200  0.218190  0.480190  0.5
  Cu  Cu44  1  0.978400  0.192150  0.979850  0.5
  Cu  Cu45  1  0.021600  0.807850  0.020150  0.5
  Cu  Cu46  1  0.978400  0.307850  0.020150  0.5
  Cu  Cu47  1  0.021600  0.692150  0.979850  0.5
  Cu  Cu48  1  0.478400  0.692150  0.479850  0.5
  Cu  Cu49  1  0.521600  0.307850  0.520150  0.5
  Cu  Cu50  1  0.478400  0.807850  0.520150  0.5
  Cu  Cu51  1  0.521600  0.192150  0.479850  0.5
  H  H52  1  0.016800  0.317900  0.811000  1.0
  H  H53  1  0.983200  0.682100  0.189000  1.0
  H  H54  1  0.016800  0.182100  0.189000  1.0
  H  H55  1  0.983200  0.817900  0.811000  1.0
  H  H56  1  0.516800  0.817900  0.311000  1.0
  H  H57  1  0.483200  0.182100  0.689000  1.0
  H  H58  1  0.516800  0.682100  0.689000  1.0
  H  H59  1  0.483200  0.317900  0.311000  1.0
  H  H60  1  0.383400  0.259700  0.826100  1.0
  H  H61  1  0.616600  0.740300  0.173900  1.0
  H  H62  1  0.383400  0.240300  0.173900  1.0
  H  H63  1  0.616600  0.759700  0.826100  1.0
  H  H64  1  0.883400  0.759700  0.326100  1.0
  H  H65  1  0.116600  0.240300  0.673900  1.0
  H  H66  1  0.883400  0.740300  0.673900  1.0
  H  H67  1  0.116600  0.259700  0.326100  1.0
  H  H68  1  0.971300  0.337500  0.853400  1.0
  H  H69  1  0.028700  0.662500  0.146600  1.0
  H  H70  1  0.971300  0.162500  0.146600  1.0
  H  H71  1  0.028700  0.837500  0.853400  1.0
  H  H72  1  0.471300  0.837500  0.353400  1.0
  H  H73  1  0.528700  0.162500  0.646600  1.0
  H  H74  1  0.471300  0.662500  0.646600  1.0
  H  H75  1  0.528700  0.337500  0.353400  1.0
  H  H76  1  0.345100  0.287300  0.868400  1.0
  H  H77  1  0.654900  0.712700  0.131600  1.0
  H  H78  1  0.345100  0.212700  0.131600  1.0
  H  H79  1  0.654900  0.787300  0.868400  1.0
  H  H80  1  0.845100  0.787300  0.368400  1.0
  H  H81  1  0.154900  0.212700  0.631600  1.0
  H  H82  1  0.845100  0.712700  0.631600  1.0
  H  H83  1  0.154900  0.287300  0.368400  1.0
  H  H84  1  0.933200  0.320400  0.892000  1.0
  H  H85  1  0.066800  0.679600  0.108000  1.0
  H  H86  1  0.933200  0.179600  0.108000  1.0
  H  H87  1  0.066800  0.820400  0.892000  1.0
  H  H88  1  0.433200  0.820400  0.392000  1.0
  H  H89  1  0.566800  0.179600  0.608000  1.0
  H  H90  1  0.433200  0.679600  0.608000  1.0
  H  H91  1  0.566800  0.320400  0.392000  1.0
  H  H92  1  0.317800  0.350400  0.903000  1.0
  H  H93  1  0.682200  0.649600  0.097000  1.0
  H  H94  1  0.317800  0.149600  0.097000  1.0
  H  H95  1  0.682200  0.850400  0.903000  1.0
  H  H96  1  0.817800  0.850400  0.403000  1.0
  H  H97  1  0.182200  0.149600  0.597000  1.0
  H  H98  1  0.817800  0.649600  0.597000  1.0
  H  H99  1  0.182200  0.350400  0.403000  1.0
  H  H100  1  0.904400  0.336000  0.933700  1.0
  H  H101  1  0.095600  0.664000  0.066300  1.0
  H  H102  1  0.904400  0.164000  0.066300  1.0
  H  H103  1  0.095600  0.836000  0.933700  1.0
  H  H104  1  0.404400  0.836000  0.433700  1.0
  H  H105  1  0.595600  0.164000  0.566300  1.0
  H  H106  1  0.404400  0.664000  0.566300  1.0
  H  H107  1  0.595600  0.336000  0.433700  1.0
  H  H108  1  0.279600  0.364500  0.945600  1.0
  H  H109  1  0.720400  0.635500  0.054400  1.0
  H  H110  1  0.279600  0.135500  0.054400  1.0
  H  H111  1  0.720400  0.864500  0.945600  1.0
  H  H112  1  0.779600  0.864500  0.445600  1.0
  H  H113  1  0.220400  0.135500  0.554400  1.0
  H  H114  1  0.779600  0.635500  0.554400  1.0
  H  H115  1  0.220400  0.364500  0.445600  1.0
  H  H116  1  0.510300  0.020700  0.679300  1.0
  H  H117  1  0.489700  0.979300  0.320700  1.0
  H  H118  1  0.510300  0.479300  0.320700  1.0
  H  H119  1  0.489700  0.520700  0.679300  1.0
  H  H120  1  0.010300  0.520700  0.179300  1.0
  H  H121  1  0.989700  0.479300  0.820700  1.0
  H  H122  1  0.010300  0.979300  0.820700  1.0
  H  H123  1  0.989700  0.020700  0.179300  1.0
  H  H124  1  0.120100  0.050400  0.668300  1.0
  H  H125  1  0.879900  0.949600  0.331700  1.0
  H  H126  1  0.120100  0.449600  0.331700  1.0
  H  H127  1  0.879900  0.550400  0.668300  1.0
  H  H128  1  0.620100  0.550400  0.168300  1.0
  H  H129  1  0.379900  0.449600  0.831700  1.0
  H  H130  1  0.620100  0.949600  0.831700  1.0
  H  H131  1  0.379900  0.050400  0.168300  1.0
  H  H132  1  0.537800  0.999300  0.637100  1.0
  H  H133  1  0.462200  0.000700  0.362900  1.0
  H  H134  1  0.537800  0.500700  0.362900  1.0
  H  H135  1  0.462200  0.499300  0.637100  1.0
  H  H136  1  0.037800  0.499300  0.137100  1.0
  H  H137  1  0.962200  0.500700  0.862900  1.0
  H  H138  1  0.037800  0.000700  0.862900  1.0
  H  H139  1  0.962200  0.999300  0.137100  1.0
  H  H140  1  0.149100  0.023800  0.626400  1.0
  H  H141  1  0.850900  0.976200  0.373600  1.0
  H  H142  1  0.149100  0.476200  0.373600  1.0
  H  H143  1  0.850900  0.523800  0.626400  1.0
  H  H144  1  0.649100  0.523800  0.126400  1.0
  H  H145  1  0.350900  0.476200  0.873600  1.0
  H  H146  1  0.649100  0.976200  0.873600  1.0
  H  H147  1  0.350900  0.023800  0.126400  1.0
  H  H148  1  0.563400  0.014700  0.599800  1.0
  H  H149  1  0.436600  0.985300  0.400200  1.0
  H  H150  1  0.563400  0.485300  0.400200  1.0
  H  H151  1  0.436600  0.514700  0.599800  1.0
  H  H152  1  0.063400  0.514700  0.099800  1.0
  H  H153  1  0.936600  0.485300  0.900200  1.0
  H  H154  1  0.063400  0.985300  0.900200  1.0
  H  H155  1  0.936600  0.014700  0.099800  1.0
  H  H156  1  0.182900  0.972400  0.590200  1.0
  H  H157  1  0.817100  0.027600  0.409800  1.0
  H  H158  1  0.182900  0.527600  0.409800  1.0
  H  H159  1  0.817100  0.472400  0.590200  1.0
  H  H160  1  0.682900  0.472400  0.090200  1.0
  H  H161  1  0.317100  0.527600  0.909800  1.0
  H  H162  1  0.682900  0.027600  0.909800  1.0
  H  H163  1  0.317100  0.972400  0.090200  1.0
  H  H164  1  0.593300  0.988800  0.558000  1.0
  H  H165  1  0.406700  0.011200  0.442000  1.0
  H  H166  1  0.593300  0.511200  0.442000  1.0
  H  H167  1  0.406700  0.488800  0.558000  1.0
  H  H168  1  0.093300  0.488800  0.058000  1.0
  H  H169  1  0.906700  0.511200  0.942000  1.0
  H  H170  1  0.093300  0.011200  0.942000  1.0
  H  H171  1  0.906700  0.988800  0.058000  1.0
  H  H172  1  0.213400  0.958300  0.548600  1.0
  H  H173  1  0.786600  0.041700  0.451400  1.0
  H  H174  1  0.213400  0.541700  0.451400  1.0
  H  H175  1  0.786600  0.458300  0.548600  1.0
  H  H176  1  0.713400  0.458300  0.048600  1.0
  H  H177  1  0.286600  0.541700  0.951400  1.0
  H  H178  1  0.713400  0.041700  0.951400  1.0
  H  H179  1  0.286600  0.958300  0.048600  1.0
  H  H180  1  0.184600  0.135900  0.817100  1.0
  H  H181  1  0.815400  0.864100  0.182900  1.0
  H  H182  1  0.184600  0.364100  0.182900  1.0
  H  H183  1  0.815400  0.635900  0.817100  1.0
  H  H184  1  0.684600  0.635900  0.317100  1.0
  H  H185  1  0.315400  0.364100  0.682900  1.0
  H  H186  1  0.684600  0.864100  0.682900  1.0
  H  H187  1  0.315400  0.135900  0.317100  1.0
  H  H188  1  0.787000  0.126500  0.815000  1.0
  H  H189  1  0.213000  0.873500  0.185000  1.0
  H  H190  1  0.787000  0.373500  0.185000  1.0
  H  H191  1  0.213000  0.626500  0.815000  1.0
  H  H192  1  0.287000  0.626500  0.315000  1.0
  H  H193  1  0.713000  0.373500  0.685000  1.0
  H  H194  1  0.287000  0.873500  0.685000  1.0
  H  H195  1  0.713000  0.126500  0.315000  1.0
  H  H196  1  0.178900  0.153600  0.860100  1.0
  H  H197  1  0.821100  0.846400  0.139900  1.0
  H  H198  1  0.178900  0.346400  0.139900  1.0
  H  H199  1  0.821100  0.653600  0.860100  1.0
  H  H200  1  0.678900  0.653600  0.360100  1.0
  H  H201  1  0.321100  0.346400  0.639900  1.0
  H  H202  1  0.678900  0.846400  0.639900  1.0
  H  H203  1  0.321100  0.153600  0.360100  1.0
  H  H204  1  0.778200  0.145400  0.857800  1.0
  H  H205  1  0.221800  0.854600  0.142200  1.0
  H  H206  1  0.778200  0.354600  0.142200  1.0
  H  H207  1  0.221800  0.645400  0.857800  1.0
  H  H208  1  0.278200  0.645400  0.357800  1.0
  H  H209  1  0.721800  0.354600  0.642200  1.0
  H  H210  1  0.278200  0.854600  0.642200  1.0
  H  H211  1  0.721800  0.145400  0.357800  1.0
  H  H212  1  0.167800  0.157500  0.897700  1.0
  H  H213  1  0.832200  0.842500  0.102300  1.0
  H  H214  1  0.167800  0.342500  0.102300  1.0
  H  H215  1  0.832200  0.657500  0.897700  1.0
  H  H216  1  0.667800  0.657500  0.397700  1.0
  H  H217  1  0.332200  0.342500  0.602300  1.0
  H  H218  1  0.667800  0.842500  0.602300  1.0
  H  H219  1  0.332200  0.157500  0.397700  1.0
  H  H220  1  0.778200  0.180600  0.896100  1.0
  H  H221  1  0.221800  0.819400  0.103900  1.0
  H  H222  1  0.778200  0.319400  0.103900  1.0
  H  H223  1  0.221800  0.680600  0.896100  1.0
  H  H224  1  0.278200  0.680600  0.396100  1.0
  H  H225  1  0.721800  0.319400  0.603900  1.0
  H  H226  1  0.278200  0.819400  0.603900  1.0
  H  H227  1  0.721800  0.180600  0.396100  1.0
  H  H228  1  0.160800  0.180100  0.940000  1.0
  H  H229  1  0.839200  0.819900  0.060000  1.0
  H  H230  1  0.160800  0.319900  0.060000  1.0
  H  H231  1  0.839200  0.680100  0.940000  1.0
  H  H232  1  0.660800  0.680100  0.440000  1.0
  H  H233  1  0.339200  0.319900  0.560000  1.0
  H  H234  1  0.660800  0.819900  0.560000  1.0
  H  H235  1  0.339200  0.180100  0.440000  1.0
  H  H236  1  0.783800  0.196300  0.938400  1.0
  H  H237  1  0.216200  0.803700  0.061600  1.0
  H  H238  1  0.783800  0.303700  0.061600  1.0
  H  H239  1  0.216200  0.696300  0.938400  1.0
  H  H240  1  0.283800  0.696300  0.438400  1.0
  H  H241  1  0.716200  0.303700  0.561600  1.0
  H  H242  1  0.283800  0.803700  0.561600  1.0
  H  H243  1  0.716200  0.196300  0.438400  1.0
  H  H244  1  0.353700  0.003100  0.857900  1.0
  H  H245  1  0.646300  0.996900  0.142100  1.0
  H  H246  1  0.353700  0.496900  0.142100  1.0
  H  H247  1  0.646300  0.503100  0.857900  1.0
  H  H248  1  0.853700  0.503100  0.357900  1.0
  H  H249  1  0.146300  0.496900  0.642100  1.0
  H  H250  1  0.853700  0.996900  0.642100  1.0
  H  H251  1  0.146300  0.003100  0.357900  1.0
  H  H252  1  0.506800  0.162500  0.834800  1.0
  H  H253  1  0.493200  0.837500  0.165200  1.0
  H  H254  1  0.506800  0.337500  0.165200  1.0
  H  H255  1  0.493200  0.662500  0.834800  1.0
  H  H256  1  0.006800  0.662500  0.334800  1.0
  H  H257  1  0.993200  0.337500  0.665200  1.0
  H  H258  1  0.006800  0.837500  0.665200  1.0
  H  H259  1  0.993200  0.162500  0.334800  1.0
  H  H260  1  0.374700  0.046600  0.898100  1.0
  H  H261  1  0.625300  0.953400  0.101900  1.0
  H  H262  1  0.374700  0.453400  0.101900  1.0
  H  H263  1  0.625300  0.546600  0.898100  1.0
  H  H264  1  0.874700  0.546600  0.398100  1.0
  H  H265  1  0.125300  0.453400  0.601900  1.0
  H  H266  1  0.874700  0.953400  0.601900  1.0
  H  H267  1  0.125300  0.046600  0.398100  1.0
  H  H268  1  0.536500  0.202700  0.875600  1.0
  H  H269  1  0.463500  0.797300  0.124400  1.0
  H  H270  1  0.536500  0.297300  0.124400  1.0
  H  H271  1  0.463500  0.702700  0.875600  1.0
  H  H272  1  0.036500  0.702700  0.375600  1.0
  H  H273  1  0.963500  0.297300  0.624400  1.0
  H  H274  1  0.036500  0.797300  0.624400  1.0
  H  H275  1  0.963500  0.202700  0.375600  1.0
  H  H276  1  0.444800  0.076700  0.934800  1.0
  H  H277  1  0.555200  0.923300  0.065200  1.0
  H  H278  1  0.444800  0.423300  0.065200  1.0
  H  H279  1  0.555200  0.576700  0.934800  1.0
  H  H280  1  0.944800  0.576700  0.434800  1.0
  H  H281  1  0.055200  0.423300  0.565200  1.0
  H  H282  1  0.944800  0.923300  0.565200  1.0
  H  H283  1  0.055200  0.076700  0.434800  1.0
  H  H284  1  0.496300  0.249000  0.910900  1.0
  H  H285  1  0.503700  0.751000  0.089100  1.0
  H  H286  1  0.496300  0.251000  0.089100  1.0
  H  H287  1  0.503700  0.749000  0.910900  1.0
  H  H288  1  0.996300  0.749000  0.410900  1.0
  H  H289  1  0.003700  0.251000  0.589100  1.0
  H  H290  1  0.996300  0.751000  0.589100  1.0
  H  H291  1  0.003700  0.249000  0.410900  1.0
  H  H292  1  0.477600  0.124300  0.974800  1.0
  H  H293  1  0.522400  0.875700  0.025200  1.0
  H  H294  1  0.477600  0.375700  0.025200  1.0
  H  H295  1  0.522400  0.624300  0.974800  1.0
  H  H296  1  0.977600  0.624300  0.474800  1.0
  H  H297  1  0.022400  0.375700  0.525200  1.0
  H  H298  1  0.977600  0.875700  0.525200  1.0
  H  H299  1  0.022400  0.124300  0.474800  1.0
  H  H300  1  0.542500  0.290700  0.950800  1.0
  H  H301  1  0.457500  0.709300  0.049200  1.0
  H  H302  1  0.542500  0.209300  0.049200  1.0
  H  H303  1  0.457500  0.790700  0.950800  1.0
  H  H304  1  0.042500  0.790700  0.450800  1.0
  H  H305  1  0.957500  0.209300  0.549200  1.0
  H  H306  1  0.042500  0.709300  0.549200  1.0
  H  H307  1  0.957500  0.290700  0.450800  1.0
  H  H308  1  0.005400  0.209700  0.753800  1.0
  H  H309  1  0.994600  0.790300  0.246200  1.0
  H  H310  1  0.005400  0.290300  0.246200  1.0
  H  H311  1  0.994600  0.709700  0.753800  1.0
  H  H312  1  0.505400  0.709700  0.253800  1.0
  H  H313  1  0.494600  0.290300  0.746200  1.0
  H  H314  1  0.505400  0.790300  0.746200  1.0
  H  H315  1  0.494600  0.209700  0.253800  1.0
  H  H316  1  0.054600  0.213700  0.729900  1.0
  H  H317  1  0.945400  0.786300  0.270100  1.0
  H  H318  1  0.054600  0.286300  0.270100  1.0
  H  H319  1  0.945400  0.713700  0.729900  1.0
  H  H320  1  0.554600  0.713700  0.229900  1.0
  H  H321  1  0.445400  0.286300  0.770100  1.0
  H  H322  1  0.554600  0.786300  0.770100  1.0
  H  H323  1  0.445400  0.213700  0.229900  1.0
  H  H324  1  0.992000  0.126000  0.678300  1.0
  H  H325  1  0.008000  0.874000  0.321700  1.0
  H  H326  1  0.992000  0.374000  0.321700  1.0
  H  H327  1  0.008000  0.626000  0.678300  1.0
  H  H328  1  0.492000  0.626000  0.178300  1.0
  H  H329  1  0.508000  0.374000  0.821700  1.0
  H  H330  1  0.492000  0.874000  0.821700  1.0
  H  H331  1  0.508000  0.126000  0.178300  1.0
  H  H332  1  0.856100  0.132900  0.682300  1.0
  H  H333  1  0.143900  0.867100  0.317700  1.0
  H  H334  1  0.856100  0.367100  0.317700  1.0
  H  H335  1  0.143900  0.632900  0.682300  1.0
  H  H336  1  0.356100  0.632900  0.182300  1.0
  H  H337  1  0.643900  0.367100  0.817700  1.0
  H  H338  1  0.356100  0.867100  0.817700  1.0
  H  H339  1  0.643900  0.132900  0.182300  1.0
  H  H340  1  0.648100  0.231700  0.723300  1.0
  H  H341  1  0.351900  0.768300  0.276700  1.0
  H  H342  1  0.648100  0.268300  0.276700  1.0
  H  H343  1  0.351900  0.731700  0.723300  1.0
  H  H344  1  0.148100  0.731700  0.223300  1.0
  H  H345  1  0.851900  0.268300  0.776700  1.0
  H  H346  1  0.148100  0.768300  0.776700  1.0
  H  H347  1  0.851900  0.231700  0.223300  1.0
  H  H348  1  0.696300  0.294000  0.727200  1.0
  H  H349  1  0.303700  0.706000  0.272800  1.0
  H  H350  1  0.696300  0.206000  0.272800  1.0
  H  H351  1  0.303700  0.794000  0.727200  1.0
  H  H352  1  0.196300  0.794000  0.227200  1.0
  H  H353  1  0.803700  0.206000  0.772800  1.0
  H  H354  1  0.196300  0.706000  0.772800  1.0
  H  H355  1  0.803700  0.294000  0.227200  1.0
  H  H356  1  0.777200  0.235800  0.669300  1.0
  H  H357  1  0.222800  0.764200  0.330700  1.0
  H  H358  1  0.777200  0.264200  0.330700  1.0
  H  H359  1  0.222800  0.735800  0.669300  1.0
  H  H360  1  0.277200  0.735800  0.169300  1.0
  H  H361  1  0.722800  0.264200  0.830700  1.0
  H  H362  1  0.277200  0.764200  0.830700  1.0
  H  H363  1  0.722800  0.235800  0.169300  1.0
  H  H364  1  0.777000  0.260500  0.694100  1.0
  H  H365  1  0.223000  0.739500  0.305900  1.0
  H  H366  1  0.777000  0.239500  0.305900  1.0
  H  H367  1  0.223000  0.760500  0.694100  1.0
  H  H368  1  0.277000  0.760500  0.194100  1.0
  H  H369  1  0.723000  0.239500  0.805900  1.0
  H  H370  1  0.277000  0.739500  0.805900  1.0
  H  H371  1  0.723000  0.260500  0.194100  1.0
  C  C372  1  0.227900  0.268020  0.787320  1.0
  C  C373  1  0.772100  0.731980  0.212680  1.0
  C  C374  1  0.227900  0.231980  0.212680  1.0
  C  C375  1  0.772100  0.768020  0.787320  1.0
  C  C376  1  0.727900  0.768020  0.287320  1.0
  C  C377  1  0.272100  0.231980  0.712680  1.0
  C  C378  1  0.727900  0.731980  0.712680  1.0
  C  C379  1  0.272100  0.268020  0.287320  1.0
  C  C380  1  0.200600  0.284170  0.814670  1.0
  C  C381  1  0.799400  0.715830  0.185330  1.0
  C  C382  1  0.200600  0.215830  0.185330  1.0
  C  C383  1  0.799400  0.784170  0.814670  1.0
  C  C384  1  0.700600  0.784170  0.314670  1.0
  C  C385  1  0.299400  0.215830  0.685330  1.0
  C  C386  1  0.700600  0.715830  0.685330  1.0
  C  C387  1  0.299400  0.284170  0.314670  1.0
  C  C388  1  0.081200  0.309590  0.822590  1.0
  C  C389  1  0.918800  0.690410  0.177410  1.0
  C  C390  1  0.081200  0.190410  0.177410  1.0
  C  C391  1  0.918800  0.809590  0.822590  1.0
  C  C392  1  0.581200  0.809590  0.322590  1.0
  C  C393  1  0.418800  0.190410  0.677410  1.0
  C  C394  1  0.581200  0.690410  0.677410  1.0
  C  C395  1  0.418800  0.309590  0.322590  1.0
  C  C396  1  0.301400  0.275870  0.831570  1.0
  C  C397  1  0.698600  0.724130  0.168430  1.0
  C  C398  1  0.301400  0.224130  0.168430  1.0
  C  C399  1  0.698600  0.775870  0.831570  1.0
  C  C400  1  0.801400  0.775870  0.331570  1.0
  C  C401  1  0.198600  0.224130  0.668430  1.0
  C  C402  1  0.801400  0.724130  0.668430  1.0
  C  C403  1  0.198600  0.275870  0.331570  1.0
  C  C404  1  0.055100  0.323300  0.848100  1.0
  C  C405  1  0.944900  0.676700  0.151900  1.0
  C  C406  1  0.055100  0.176700  0.151900  1.0
  C  C407  1  0.944900  0.823300  0.848100  1.0
  C  C408  1  0.555100  0.823300  0.348100  1.0
  C  C409  1  0.444900  0.176700  0.651900  1.0
  C  C410  1  0.555100  0.676700  0.651900  1.0
  C  C411  1  0.444900  0.323300  0.348100  1.0
  C  C412  1  0.277800  0.292170  0.856970  1.0
  C  C413  1  0.722200  0.707830  0.143030  1.0
  C  C414  1  0.277800  0.207830  0.143030  1.0
  C  C415  1  0.722200  0.792170  0.856970  1.0
  C  C416  1  0.777800  0.792170  0.356970  1.0
  C  C417  1  0.222200  0.207830  0.643030  1.0
  C  C418  1  0.777800  0.707830  0.643030  1.0
  C  C419  1  0.222200  0.292170  0.356970  1.0
  C  C420  1  0.153300  0.315810  0.865310  1.0
  C  C421  1  0.846700  0.684190  0.134690  1.0
  C  C422  1  0.153300  0.184190  0.134690  1.0
  C  C423  1  0.846700  0.815810  0.865310  1.0
  C  C424  1  0.653300  0.815810  0.365310  1.0
  C  C425  1  0.346700  0.184190  0.634690  1.0
  C  C426  1  0.653300  0.684190  0.634690  1.0
  C  C427  1  0.346700  0.315810  0.365310  1.0
  C  C428  1  0.129700  0.330390  0.892490  1.0
  C  C429  1  0.870300  0.669610  0.107510  1.0
  C  C430  1  0.129700  0.169610  0.107510  1.0
  C  C431  1  0.870300  0.830390  0.892490  1.0
  C  C432  1  0.629700  0.830390  0.392490  1.0
  C  C433  1  0.370300  0.169610  0.607510  1.0
  C  C434  1  0.629700  0.669610  0.607510  1.0
  C  C435  1  0.370300  0.330390  0.392490  1.0
  C  C436  1  0.006400  0.328580  0.902280  1.0
  C  C437  1  0.993600  0.671420  0.097720  1.0
  C  C438  1  0.006400  0.171420  0.097720  1.0
  C  C439  1  0.993600  0.828580  0.902280  1.0
  C  C440  1  0.506400  0.828580  0.402280  1.0
  C  C441  1  0.493600  0.171420  0.597720  1.0
  C  C442  1  0.506400  0.671420  0.597720  1.0
  C  C443  1  0.493600  0.328580  0.402280  1.0
  C  C444  1  0.232200  0.346140  0.909040  1.0
  C  C445  1  0.767800  0.653860  0.090960  1.0
  C  C446  1  0.232200  0.153860  0.090960  1.0
  C  C447  1  0.767800  0.846140  0.909040  1.0
  C  C448  1  0.732200  0.846140  0.409040  1.0
  C  C449  1  0.267800  0.153860  0.590960  1.0
  C  C450  1  0.732200  0.653860  0.590960  1.0
  C  C451  1  0.267800  0.346140  0.409040  1.0
  C  C452  1  0.990300  0.338970  0.927670  1.0
  C  C453  1  0.009700  0.661030  0.072330  1.0
  C  C454  1  0.990300  0.161030  0.072330  1.0
  C  C455  1  0.009700  0.838970  0.927670  1.0
  C  C456  1  0.490300  0.838970  0.427670  1.0
  C  C457  1  0.509700  0.161030  0.572330  1.0
  C  C458  1  0.490300  0.661030  0.572330  1.0
  C  C459  1  0.509700  0.338970  0.427670  1.0
  C  C460  1  0.209200  0.355750  0.934650  1.0
  C  C461  1  0.790800  0.644250  0.065350  1.0
  C  C462  1  0.209200  0.144250  0.065350  1.0
  C  C463  1  0.790800  0.855750  0.934650  1.0
  C  C464  1  0.709200  0.855750  0.434650  1.0
  C  C465  1  0.290800  0.144250  0.565350  1.0
  C  C466  1  0.709200  0.644250  0.565350  1.0
  C  C467  1  0.290800  0.355750  0.434650  1.0
  C  C468  1  0.300600  0.059120  0.705420  1.0
  C  C469  1  0.699400  0.940880  0.294580  1.0
  C  C470  1  0.300600  0.440880  0.294580  1.0
  C  C471  1  0.699400  0.559120  0.705420  1.0
  C  C472  1  0.800600  0.559120  0.205420  1.0
  C  C473  1  0.199400  0.440880  0.794580  1.0
  C  C474  1  0.800600  0.940880  0.794580  1.0
  C  C475  1  0.199400  0.059120  0.205420  1.0
  C  C476  1  0.311200  0.039250  0.678350  1.0
  C  C477  1  0.688800  0.960750  0.321650  1.0
  C  C478  1  0.311200  0.460750  0.321650  1.0
  C  C479  1  0.688800  0.539250  0.678350  1.0
  C  C480  1  0.811200  0.539250  0.178350  1.0
  C  C481  1  0.188800  0.460750  0.821650  1.0
  C  C482  1  0.811200  0.960750  0.821650  1.0
  C  C483  1  0.188800  0.039250  0.178350  1.0
  C  C484  1  0.438000  0.022620  0.668720  1.0
  C  C485  1  0.562000  0.977380  0.331280  1.0
  C  C486  1  0.438000  0.477380  0.331280  1.0
  C  C487  1  0.562000  0.522620  0.668720  1.0
  C  C488  1  0.938000  0.522620  0.168720  1.0
  C  C489  1  0.062000  0.477380  0.831280  1.0
  C  C490  1  0.938000  0.977380  0.831280  1.0
  C  C491  1  0.062000  0.022620  0.168720  1.0
  C  C492  1  0.204200  0.039730  0.662130  1.0
  C  C493  1  0.795800  0.960270  0.337870  1.0
  C  C494  1  0.204200  0.460270  0.337870  1.0
  C  C495  1  0.795800  0.539730  0.662130  1.0
  C  C496  1  0.704200  0.539730  0.162130  1.0
  C  C497  1  0.295800  0.460270  0.837870  1.0
  C  C498  1  0.704200  0.960270  0.837870  1.0
  C  C499  1  0.295800  0.039730  0.162130  1.0
  C  C500  1  0.453800  0.009350  0.643450  1.0
  C  C501  1  0.546200  0.990650  0.356550  1.0
  C  C502  1  0.453800  0.490650  0.356550  1.0
  C  C503  1  0.546200  0.509350  0.643450  1.0
  C  C504  1  0.953800  0.509350  0.143450  1.0
  C  C505  1  0.046200  0.490650  0.856550  1.0
  C  C506  1  0.953800  0.990650  0.856550  1.0
  C  C507  1  0.046200  0.009350  0.143450  1.0
  C  C508  1  0.222100  0.024540  0.636940  1.0
  C  C509  1  0.777900  0.975460  0.363060  1.0
  C  C510  1  0.222100  0.475460  0.363060  1.0
  C  C511  1  0.777900  0.524540  0.636940  1.0
  C  C512  1  0.722100  0.524540  0.136940  1.0
  C  C513  1  0.277900  0.475460  0.863060  1.0
  C  C514  1  0.722100  0.975460  0.863060  1.0
  C  C515  1  0.277900  0.024540  0.136940  1.0
  C  C516  1  0.346300  0.010430  0.627130  1.0
  C  C517  1  0.653700  0.989570  0.372870  1.0
  C  C518  1  0.346300  0.489570  0.372870  1.0
  C  C519  1  0.653700  0.510430  0.627130  1.0
  C  C520  1  0.846300  0.510430  0.127130  1.0
  C  C521  1  0.153700  0.489570  0.872870  1.0
  C  C522  1  0.846300  0.989570  0.872870  1.0
  C  C523  1  0.153700  0.010430  0.127130  1.0
  C  C524  1  0.367500  0.996480  0.600180  1.0
  C  C525  1  0.632500  0.003520  0.399820  1.0
  C  C526  1  0.367500  0.503520  0.399820  1.0
  C  C527  1  0.632500  0.496480  0.600180  1.0
  C  C528  1  0.867500  0.496480  0.100180  1.0
  C  C529  1  0.132500  0.503520  0.899820  1.0
  C  C530  1  0.867500  0.003520  0.899820  1.0
  C  C531  1  0.132500  0.996480  0.100180  1.0
  C  C532  1  0.491300  0.001470  0.589870  1.0
  C  C533  1  0.508700  0.998530  0.410130  1.0
  C  C534  1  0.491300  0.498530  0.410130  1.0
  C  C535  1  0.508700  0.501470  0.589870  1.0
  C  C536  1  0.991300  0.501470  0.089870  1.0
  C  C537  1  0.008700  0.498530  0.910130  1.0
  C  C538  1  0.991300  0.998530  0.910130  1.0
  C  C539  1  0.008700  0.001470  0.089870  1.0
  C  C540  1  0.267500  0.977890  0.583890  1.0
  C  C541  1  0.732500  0.022110  0.416110  1.0
  C  C542  1  0.267500  0.522110  0.416110  1.0
  C  C543  1  0.732500  0.477890  0.583890  1.0
  C  C544  1  0.767500  0.477890  0.083890  1.0
  C  C545  1  0.232500  0.522110  0.916110  1.0
  C  C546  1  0.767500  0.022110  0.916110  1.0
  C  C547  1  0.232500  0.977890  0.083890  1.0
  C  C548  1  0.508100  0.986360  0.564460  1.0
  C  C549  1  0.491900  0.013640  0.435540  1.0
  C  C550  1  0.508100  0.513640  0.435540  1.0
  C  C551  1  0.491900  0.486360  0.564460  1.0
  C  C552  1  0.008100  0.486360  0.064460  1.0
  C  C553  1  0.991900  0.513640  0.935540  1.0
  C  C554  1  0.008100  0.013640  0.935540  1.0
  C  C555  1  0.991900  0.986360  0.064460  1.0
  C  C556  1  0.286200  0.967000  0.558900  1.0
  C  C557  1  0.713800  0.033000  0.441100  1.0
  C  C558  1  0.286200  0.533000  0.441100  1.0
  C  C559  1  0.713800  0.467000  0.558900  1.0
  C  C560  1  0.786200  0.467000  0.058900  1.0
  C  C561  1  0.213800  0.533000  0.941100  1.0
  C  C562  1  0.786200  0.033000  0.941100  1.0
  C  C563  1  0.213800  0.967000  0.058900  1.0
  C  C564  1  0.985700  0.113790  0.783990  1.0
  C  C565  1  0.014300  0.886210  0.216010  1.0
  C  C566  1  0.985700  0.386210  0.216010  1.0
  C  C567  1  0.014300  0.613790  0.783990  1.0
  C  C568  1  0.485700  0.613790  0.283990  1.0
  C  C569  1  0.514300  0.386210  0.716010  1.0
  C  C570  1  0.485700  0.886210  0.716010  1.0
  C  C571  1  0.514300  0.113790  0.283990  1.0
  C  C572  1  0.985300  0.127520  0.811420  1.0
  C  C573  1  0.014700  0.872480  0.188580  1.0
  C  C574  1  0.985300  0.372480  0.188580  1.0
  C  C575  1  0.014700  0.627520  0.811420  1.0
  C  C576  1  0.485300  0.627520  0.311420  1.0
  C  C577  1  0.514700  0.372480  0.688580  1.0
  C  C578  1  0.485300  0.872480  0.688580  1.0
  C  C579  1  0.514700  0.127520  0.311420  1.0
  C  C580  1  0.103300  0.137280  0.825280  1.0
  C  C581  1  0.896700  0.862720  0.174720  1.0
  C  C582  1  0.103300  0.362720  0.174720  1.0
  C  C583  1  0.896700  0.637280  0.825280  1.0
  C  C584  1  0.603300  0.637280  0.325280  1.0
  C  C585  1  0.396700  0.362720  0.674720  1.0
  C  C586  1  0.603300  0.862720  0.674720  1.0
  C  C587  1  0.396700  0.137280  0.325280  1.0
  C  C588  1  0.865600  0.131880  0.823980  1.0
  C  C589  1  0.134400  0.868120  0.176020  1.0
  C  C590  1  0.865600  0.368120  0.176020  1.0
  C  C591  1  0.134400  0.631880  0.823980  1.0
  C  C592  1  0.365600  0.631880  0.323980  1.0
  C  C593  1  0.634400  0.368120  0.676020  1.0
  C  C594  1  0.365600  0.868120  0.676020  1.0
  C  C595  1  0.634400  0.131880  0.323980  1.0
  C  C596  1  0.099900  0.149170  0.851170  1.0
  C  C597  1  0.900100  0.850830  0.148830  1.0
  C  C598  1  0.099900  0.350830  0.148830  1.0
  C  C599  1  0.900100  0.649170  0.851170  1.0
  C  C600  1  0.599900  0.649170  0.351170  1.0
  C  C601  1  0.400100  0.350830  0.648830  1.0
  C  C602  1  0.599900  0.850830  0.648830  1.0
  C  C603  1  0.400100  0.149170  0.351170  1.0
  C  C604  1  0.859800  0.144070  0.849770  1.0
  C  C605  1  0.140200  0.855930  0.150230  1.0
  C  C606  1  0.859800  0.355930  0.150230  1.0
  C  C607  1  0.140200  0.644070  0.849770  1.0
  C  C608  1  0.359800  0.644070  0.349770  1.0
  C  C609  1  0.640200  0.355930  0.650230  1.0
  C  C610  1  0.359800  0.855930  0.650230  1.0
  C  C611  1  0.640200  0.144070  0.349770  1.0
  C  C612  1  0.979100  0.154410  0.863710  1.0
  C  C613  1  0.020900  0.845590  0.136290  1.0
  C  C614  1  0.979100  0.345590  0.136290  1.0
  C  C615  1  0.020900  0.654410  0.863710  1.0
  C  C616  1  0.479100  0.654410  0.363710  1.0
  C  C617  1  0.520900  0.345590  0.636290  1.0
  C  C618  1  0.479100  0.845590  0.636290  1.0
  C  C619  1  0.520900  0.154410  0.363710  1.0
  C  C620  1  0.976000  0.166590  0.891090  1.0
  C  C621  1  0.024000  0.833410  0.108910  1.0
  C  C622  1  0.976000  0.333410  0.108910  1.0
  C  C623  1  0.024000  0.666590  0.891090  1.0
  C  C624  1  0.476000  0.666590  0.391090  1.0
  C  C625  1  0.524000  0.333410  0.608910  1.0
  C  C626  1  0.476000  0.833410  0.608910  1.0
  C  C627  1  0.524000  0.166590  0.391090  1.0
  C  C628  1  0.086200  0.166450  0.905350  1.0
  C  C629  1  0.913800  0.833550  0.094650  1.0
  C  C630  1  0.086200  0.333550  0.094650  1.0
  C  C631  1  0.913800  0.666450  0.905350  1.0
  C  C632  1  0.586200  0.666450  0.405350  1.0
  C  C633  1  0.413800  0.333550  0.594650  1.0
  C  C634  1  0.586200  0.833550  0.594650  1.0
  C  C635  1  0.413800  0.166450  0.405350  1.0
  C  C636  1  0.859000  0.179190  0.904390  1.0
  C  C637  1  0.141000  0.820810  0.095610  1.0
  C  C638  1  0.859000  0.320810  0.095610  1.0
  C  C639  1  0.141000  0.679190  0.904390  1.0
  C  C640  1  0.359000  0.679190  0.404390  1.0
  C  C641  1  0.641000  0.320810  0.595610  1.0
  C  C642  1  0.359000  0.820810  0.595610  1.0
  C  C643  1  0.641000  0.179190  0.404390  1.0
  C  C644  1  0.081600  0.179320  0.931120  1.0
  C  C645  1  0.918400  0.820680  0.068880  1.0
  C  C646  1  0.081600  0.320680  0.068880  1.0
  C  C647  1  0.918400  0.679320  0.931120  1.0
  C  C648  1  0.581600  0.679320  0.431120  1.0
  C  C649  1  0.418400  0.320680  0.568880  1.0
  C  C650  1  0.581600  0.820680  0.568880  1.0
  C  C651  1  0.418400  0.179320  0.431120  1.0
  C  C652  1  0.864100  0.189490  0.930090  1.0
  C  C653  1  0.135900  0.810510  0.069910  1.0
  C  C654  1  0.864100  0.310510  0.069910  1.0
  C  C655  1  0.135900  0.689490  0.930090  1.0
  C  C656  1  0.364100  0.689490  0.430090  1.0
  C  C657  1  0.635900  0.310510  0.569910  1.0
  C  C658  1  0.364100  0.810510  0.569910  1.0
  C  C659  1  0.635900  0.189490  0.430090  1.0
  C  C660  1  0.410100  0.051900  0.815300  1.0
  C  C661  1  0.589900  0.948100  0.184700  1.0
  C  C662  1  0.410100  0.448100  0.184700  1.0
  C  C663  1  0.589900  0.551900  0.815300  1.0
  C  C664  1  0.910100  0.551900  0.315300  1.0
  C  C665  1  0.089900  0.448100  0.684700  1.0
  C  C666  1  0.910100  0.948100  0.684700  1.0
  C  C667  1  0.089900  0.051900  0.315300  1.0
  C  C668  1  0.427600  0.077960  0.841660  1.0
  C  C669  1  0.572400  0.922040  0.158340  1.0
  C  C670  1  0.427600  0.422040  0.158340  1.0
  C  C671  1  0.572400  0.577960  0.841660  1.0
  C  C672  1  0.927600  0.577960  0.341660  1.0
  C  C673  1  0.072400  0.422040  0.658340  1.0
  C  C674  1  0.927600  0.922040  0.658340  1.0
  C  C675  1  0.072400  0.077960  0.341660  1.0
  C  C676  1  0.389300  0.043930  0.861230  1.0
  C  C677  1  0.610700  0.956070  0.138770  1.0
  C  C678  1  0.389300  0.456070  0.138770  1.0
  C  C679  1  0.610700  0.543930  0.861230  1.0
  C  C680  1  0.889300  0.543930  0.361230  1.0
  C  C681  1  0.110700  0.456070  0.638770  1.0
  C  C682  1  0.889300  0.956070  0.638770  1.0
  C  C683  1  0.110700  0.043930  0.361230  1.0
  C  C684  1  0.481400  0.138190  0.847490  1.0
  C  C685  1  0.518600  0.861810  0.152510  1.0
  C  C686  1  0.481400  0.361810  0.152510  1.0
  C  C687  1  0.518600  0.638190  0.847490  1.0
  C  C688  1  0.981400  0.638190  0.347490  1.0
  C  C689  1  0.018600  0.361810  0.652510  1.0
  C  C690  1  0.981400  0.861810  0.652510  1.0
  C  C691  1  0.018600  0.138190  0.347490  1.0
  C  C692  1  0.403400  0.069890  0.885390  1.0
  C  C693  1  0.596600  0.930110  0.114610  1.0
  C  C694  1  0.403400  0.430110  0.114610  1.0
  C  C695  1  0.596600  0.569890  0.885390  1.0
  C  C696  1  0.903400  0.569890  0.385390  1.0
  C  C697  1  0.096600  0.430110  0.614610  1.0
  C  C698  1  0.903400  0.930110  0.614610  1.0
  C  C699  1  0.096600  0.069890  0.385390  1.0
  C  C700  1  0.497800  0.162570  0.872070  1.0
  C  C701  1  0.502200  0.837430  0.127930  1.0
  C  C702  1  0.497800  0.337430  0.127930  1.0
  C  C703  1  0.502200  0.662570  0.872070  1.0
  C  C704  1  0.997800  0.662570  0.372070  1.0
  C  C705  1  0.002200  0.337430  0.627930  1.0
  C  C706  1  0.997800  0.837430  0.627930  1.0
  C  C707  1  0.002200  0.162570  0.372070  1.0
  C  C708  1  0.458400  0.128940  0.891240  1.0
  C  C709  1  0.541600  0.871060  0.108760  1.0
  C  C710  1  0.458400  0.371060  0.108760  1.0
  C  C711  1  0.541600  0.628940  0.891240  1.0
  C  C712  1  0.958400  0.628940  0.391240  1.0
  C  C713  1  0.041600  0.371060  0.608760  1.0
  C  C714  1  0.958400  0.871060  0.608760  1.0
  C  C715  1  0.041600  0.128940  0.391240  1.0
  C  C716  1  0.475000  0.158490  0.917790  1.0
  C  C717  1  0.525000  0.841510  0.082210  1.0
  C  C718  1  0.475000  0.341510  0.082210  1.0
  C  C719  1  0.525000  0.658490  0.917790  1.0
  C  C720  1  0.975000  0.658490  0.417790  1.0
  C  C721  1  0.025000  0.341510  0.582210  1.0
  C  C722  1  0.975000  0.841510  0.582210  1.0
  C  C723  1  0.025000  0.158490  0.417790  1.0
  C  C724  1  0.464500  0.120150  0.937650  1.0
  C  C725  1  0.535500  0.879850  0.062350  1.0
  C  C726  1  0.464500  0.379850  0.062350  1.0
  C  C727  1  0.535500  0.620150  0.937650  1.0
  C  C728  1  0.964500  0.620150  0.437650  1.0
  C  C729  1  0.035500  0.379850  0.562350  1.0
  C  C730  1  0.964500  0.879850  0.562350  1.0
  C  C731  1  0.035500  0.120150  0.437650  1.0
  C  C732  1  0.497100  0.221920  0.923520  1.0
  C  C733  1  0.502900  0.778080  0.076480  1.0
  C  C734  1  0.497100  0.278080  0.076480  1.0
  C  C735  1  0.502900  0.721920  0.923520  1.0
  C  C736  1  0.997100  0.721920  0.423520  1.0
  C  C737  1  0.002900  0.278080  0.576480  1.0
  C  C738  1  0.997100  0.778080  0.576480  1.0
  C  C739  1  0.002900  0.221920  0.423520  1.0
  C  C740  1  0.484600  0.149470  0.961670  1.0
  C  C741  1  0.515400  0.850530  0.038330  1.0
  C  C742  1  0.484600  0.350530  0.038330  1.0
  C  C743  1  0.515400  0.649470  0.961670  1.0
  C  C744  1  0.984600  0.649470  0.461670  1.0
  C  C745  1  0.015400  0.350530  0.538330  1.0
  C  C746  1  0.984600  0.850530  0.538330  1.0
  C  C747  1  0.015400  0.149470  0.461670  1.0
  C  C748  1  0.520900  0.247500  0.947800  1.0
  C  C749  1  0.479100  0.752500  0.052200  1.0
  C  C750  1  0.520900  0.252500  0.052200  1.0
  C  C751  1  0.479100  0.747500  0.947800  1.0
  C  C752  1  0.020900  0.747500  0.447800  1.0
  C  C753  1  0.979100  0.252500  0.552200  1.0
  C  C754  1  0.020900  0.752500  0.552200  1.0
  C  C755  1  0.979100  0.247500  0.447800  1.0
  C  C756  1  0.645300  0.040340  0.747540  1.0
  C  C757  1  0.354700  0.959660  0.252460  1.0
  C  C758  1  0.645300  0.459660  0.252460  1.0
  C  C759  1  0.354700  0.540340  0.747540  1.0
  C  C760  1  0.145300  0.540340  0.247540  1.0
  C  C761  1  0.854700  0.459660  0.752460  1.0
  C  C762  1  0.145300  0.959660  0.752460  1.0
  C  C763  1  0.854700  0.040340  0.247540  1.0
  C  C764  1  0.646000  0.112040  0.743240  1.0
  C  C765  1  0.354000  0.887960  0.256760  1.0
  C  C766  1  0.646000  0.387960  0.256760  1.0
  C  C767  1  0.354000  0.612040  0.743240  1.0
  C  C768  1  0.146000  0.612040  0.243240  1.0
  C  C769  1  0.854000  0.387960  0.756760  1.0
  C  C770  1  0.146000  0.887960  0.756760  1.0
  C  C771  1  0.854000  0.112040  0.243240  1.0
  I  I772  1  0.199060  0.449810  0.005000  1.0
  I  I773  1  0.800940  0.550190  0.995000  1.0
  I  I774  1  0.199060  0.050190  0.995000  1.0
  I  I775  1  0.800940  0.949810  0.005000  1.0
  I  I776  1  0.699060  0.949810  0.505000  1.0
  I  I777  1  0.300940  0.050190  0.495000  1.0
  I  I778  1  0.699060  0.550190  0.495000  1.0
  I  I779  1  0.300940  0.449810  0.505000  1.0
  I  I780  1  0.801930  0.347130  0.992210  1.0
  I  I781  1  0.198070  0.652870  0.007790  1.0
  I  I782  1  0.801930  0.152870  0.007790  1.0
  I  I783  1  0.198070  0.847130  0.992210  1.0
  I  I784  1  0.301930  0.847130  0.492210  1.0
  I  I785  1  0.698070  0.152870  0.507790  1.0
  I  I786  1  0.301930  0.652870  0.507790  1.0
  I  I787  1  0.698070  0.347130  0.492210  1.0
  I  I788  1  0.186970  0.250000  0.000000  1.0
  I  I789  1  0.813030  0.750000  0.000000  1.0
  I  I790  1  0.686970  0.750000  0.500000  1.0
  I  I791  1  0.313030  0.250000  0.500000  1.0
  N  N792  1  0.081200  0.352170  0.943570  1.0
  N  N793  1  0.918800  0.647830  0.056430  1.0
  N  N794  1  0.081200  0.147830  0.056430  1.0
  N  N795  1  0.918800  0.852170  0.943570  1.0
  N  N796  1  0.581200  0.852170  0.443570  1.0
  N  N797  1  0.418800  0.147830  0.556430  1.0
  N  N798  1  0.581200  0.647830  0.556430  1.0
  N  N799  1  0.418800  0.352170  0.443570  1.0
  N  N800  1  0.409500  0.968770  0.548870  1.0
  N  N801  1  0.590500  0.031230  0.451130  1.0
  N  N802  1  0.409500  0.531230  0.451130  1.0
  N  N803  1  0.590500  0.468770  0.548870  1.0
  N  N804  1  0.909500  0.468770  0.048870  1.0
  N  N805  1  0.090500  0.531230  0.951130  1.0
  N  N806  1  0.909500  0.031230  0.951130  1.0
  N  N807  1  0.090500  0.968770  0.048870  1.0
  N  N808  1  0.970000  0.190510  0.943510  1.0
  N  N809  1  0.030000  0.809490  0.056490  1.0
  N  N810  1  0.970000  0.309490  0.056490  1.0
  N  N811  1  0.030000  0.690510  0.943510  1.0
  N  N812  1  0.470000  0.690510  0.443510  1.0
  N  N813  1  0.530000  0.309490  0.556490  1.0
  N  N814  1  0.470000  0.809490  0.556490  1.0
  N  N815  1  0.530000  0.190510  0.443510  1.0
  N  N816  1  0.514000  0.212640  0.966940  1.0
  N  N817  1  0.486000  0.787360  0.033060  1.0
  N  N818  1  0.514000  0.287360  0.033060  1.0
  N  N819  1  0.486000  0.712640  0.966940  1.0
  N  N820  1  0.014000  0.712640  0.466940  1.0
  N  N821  1  0.986000  0.287360  0.533060  1.0
  N  N822  1  0.014000  0.787360  0.533060  1.0
  N  N823  1  0.986000  0.212640  0.466940  1.0
  Cl  Cl824  1  0.648400  0.373670  0.886670  0.628
  Cl  Cl825  1  0.351600  0.626330  0.113330  0.628
  Cl  Cl826  1  0.648400  0.126330  0.113330  0.628
  Cl  Cl827  1  0.351600  0.873670  0.886670  0.628
  Cl  Cl828  1  0.148400  0.873670  0.386670  0.628
  Cl  Cl829  1  0.851600  0.126330  0.613330  0.628
  Cl  Cl830  1  0.148400  0.626330  0.613330  0.628
  Cl  Cl831  1  0.851600  0.373670  0.386670  0.628
  O  O832  1  0.307500  0.221070  0.782270  1.0
  O  O833  1  0.692500  0.778930  0.217730  1.0
  O  O834  1  0.307500  0.278930  0.217730  1.0
  O  O835  1  0.692500  0.721070  0.782270  1.0
  O  O836  1  0.807500  0.721070  0.282270  1.0
  O  O837  1  0.192500  0.278930  0.717730  1.0
  O  O838  1  0.807500  0.778930  0.717730  1.0
  O  O839  1  0.192500  0.221070  0.282270  1.0
  O  O840  1  0.174000  0.299870  0.772270  1.0
  O  O841  1  0.826000  0.700130  0.227730  1.0
  O  O842  1  0.174000  0.200130  0.227730  1.0
  O  O843  1  0.826000  0.799870  0.772270  1.0
  O  O844  1  0.674000  0.799870  0.272270  1.0
  O  O845  1  0.326000  0.200130  0.727730  1.0
  O  O846  1  0.674000  0.700130  0.727730  1.0
  O  O847  1  0.326000  0.299870  0.272270  1.0
  O  O848  1  0.402900  0.059120  0.718220  1.0
  O  O849  1  0.597100  0.940880  0.281780  1.0
  O  O850  1  0.402900  0.440880  0.281780  1.0
  O  O851  1  0.597100  0.559120  0.718220  1.0
  O  O852  1  0.902900  0.559120  0.218220  1.0
  O  O853  1  0.097100  0.440880  0.781780  1.0
  O  O854  1  0.902900  0.940880  0.781780  1.0
  O  O855  1  0.097100  0.059120  0.218220  1.0
  O  O856  1  0.187900  0.075830  0.715330  1.0
  O  O857  1  0.812100  0.924170  0.284670  1.0
  O  O858  1  0.187900  0.424170  0.284670  1.0
  O  O859  1  0.812100  0.575830  0.715330  1.0
  O  O860  1  0.687900  0.575830  0.215330  1.0
  O  O861  1  0.312100  0.424170  0.784670  1.0
  O  O862  1  0.687900  0.924170  0.784670  1.0
  O  O863  1  0.312100  0.075830  0.215330  1.0
  O  O864  1  0.097700  0.111110  0.772110  1.0
  O  O865  1  0.902300  0.888890  0.227890  1.0
  O  O866  1  0.097700  0.388890  0.227890  1.0
  O  O867  1  0.902300  0.611110  0.772110  1.0
  O  O868  1  0.597700  0.611110  0.272110  1.0
  O  O869  1  0.402300  0.388890  0.727890  1.0
  O  O870  1  0.597700  0.888890  0.727890  1.0
  O  O871  1  0.402300  0.111110  0.272110  1.0
  O  O872  1  0.880400  0.104660  0.773060  1.0
  O  O873  1  0.119600  0.895340  0.226940  1.0
  O  O874  1  0.880400  0.395340  0.226940  1.0
  O  O875  1  0.119600  0.604660  0.773060  1.0
  O  O876  1  0.380400  0.604660  0.273060  1.0
  O  O877  1  0.619600  0.395340  0.726940  1.0
  O  O878  1  0.380400  0.895340  0.726940  1.0
  O  O879  1  0.619600  0.104660  0.273060  1.0
  O  O880  1  0.408000  0.992480  0.809980  1.0
  O  O881  1  0.592000  0.007520  0.190020  1.0
  O  O882  1  0.408000  0.507520  0.190020  1.0
  O  O883  1  0.592000  0.492480  0.809980  1.0
  O  O884  1  0.908000  0.492480  0.309980  1.0
  O  O885  1  0.092000  0.507520  0.690020  1.0
  O  O886  1  0.908000  0.007520  0.690020  1.0
  O  O887  1  0.092000  0.992480  0.309980  1.0
  O  O888  1  0.397500  0.092550  0.799850  1.0
  O  O889  1  0.602500  0.907450  0.200150  1.0
  O  O890  1  0.397500  0.407450  0.200150  1.0
  O  O891  1  0.602500  0.592550  0.799850  1.0
  O  O892  1  0.897500  0.592550  0.299850  1.0
  O  O893  1  0.102500  0.407450  0.700150  1.0
  O  O894  1  0.897500  0.907450  0.700150  1.0
  O  O895  1  0.102500  0.092550  0.299850  1.0
  O  O896  1  0.560300  0.147590  0.754590  1.0
  O  O897  1  0.439700  0.852410  0.245410  1.0
  O  O898  1  0.560300  0.352410  0.245410  1.0
  O  O899  1  0.439700  0.647590  0.754590  1.0
  O  O900  1  0.060300  0.647590  0.254590  1.0
  O  O901  1  0.939700  0.352410  0.745410  1.0
  O  O902  1  0.060300  0.852410  0.745410  1.0
  O  O903  1  0.939700  0.147590  0.254590  1.0
  O  O904  1  0.544100  0.020810  0.757610  1.0
  O  O905  1  0.455900  0.979190  0.242390  1.0
  O  O906  1  0.544100  0.479190  0.242390  1.0
  O  O907  1  0.455900  0.520810  0.757610  1.0
  O  O908  1  0.044100  0.520810  0.257610  1.0
  O  O909  1  0.955900  0.479190  0.742390  1.0
  O  O910  1  0.044100  0.979190  0.742390  1.0
  O  O911  1  0.955900  0.020810  0.257610  1.0
  O  O912  1  0.749800  0.008240  0.740440  1.0
  O  O913  1  0.250200  0.991760  0.259560  1.0
  O  O914  1  0.749800  0.491760  0.259560  1.0
  O  O915  1  0.250200  0.508240  0.740440  1.0
  O  O916  1  0.249800  0.508240  0.240440  1.0
  O  O917  1  0.750200  0.491760  0.759560  1.0
  O  O918  1  0.249800  0.991760  0.759560  1.0
  O  O919  1  0.750200  0.008240  0.240440  1.0
  O  O920  1  0.730000  0.131090  0.728790  1.0
  O  O921  1  0.270000  0.868910  0.271210  1.0
  O  O922  1  0.730000  0.368910  0.271210  1.0
  O  O923  1  0.270000  0.631090  0.728790  1.0
  O  O924  1  0.230000  0.631090  0.228790  1.0
  O  O925  1  0.770000  0.368910  0.771210  1.0
  O  O926  1  0.230000  0.868910  0.771210  1.0
  O  O927  1  0.770000  0.131090  0.228790  1.0
  O  O928  1  0.989400  0.201710  0.738310  1.0
  O  O929  1  0.010600  0.798290  0.261690  1.0
  O  O930  1  0.989400  0.298290  0.261690  1.0
  O  O931  1  0.010600  0.701710  0.738310  1.0
  O  O932  1  0.489400  0.701710  0.238310  1.0
  O  O933  1  0.510600  0.298290  0.761690  1.0
  O  O934  1  0.489400  0.798290  0.761690  1.0
  O  O935  1  0.510600  0.201710  0.238310  1.0
  O  O936  1  0.932500  0.139590  0.688690  1.0
  O  O937  1  0.067500  0.860410  0.311310  1.0
  O  O938  1  0.932500  0.360410  0.311310  1.0
  O  O939  1  0.067500  0.639590  0.688690  1.0
  O  O940  1  0.432500  0.639590  0.188690  1.0
  O  O941  1  0.567500  0.360410  0.811310  1.0
  O  O942  1  0.432500  0.860410  0.811310  1.0
  O  O943  1  0.567500  0.139590  0.188690  1.0
  O  O944  1  0.709800  0.256800  0.719700  1.0
  O  O945  1  0.290200  0.743200  0.280300  1.0
  O  O946  1  0.709800  0.243200  0.280300  1.0
  O  O947  1  0.290200  0.756800  0.719700  1.0
  O  O948  1  0.209800  0.756800  0.219700  1.0
  O  O949  1  0.790200  0.243200  0.780300  1.0
  O  O950  1  0.209800  0.743200  0.780300  1.0
  O  O951  1  0.790200  0.256800  0.219700  1.0
  O  O952  1  0.825000  0.244200  0.682200  1.0
  O  O953  1  0.175000  0.755800  0.317800  1.0
  O  O954  1  0.825000  0.255800  0.317800  1.0
  O  O955  1  0.175000  0.744200  0.682200  1.0
  O  O956  1  0.325000  0.744200  0.182200  1.0
  O  O957  1  0.675000  0.255800  0.817800  1.0
  O  O958  1  0.325000  0.755800  0.817800  1.0
  O  O959  1  0.675000  0.244200  0.182200  1.0
  O  O960  1  0.667000  0.355700  0.860700  0.372
  O  O961  1  0.333000  0.644300  0.139300  0.372
  O  O962  1  0.667000  0.144300  0.139300  0.372
  O  O963  1  0.333000  0.855700  0.860700  0.372
  O  O964  1  0.167000  0.855700  0.360700  0.372
  O  O965  1  0.833000  0.144300  0.639300  0.372
  O  O966  1  0.167000  0.644300  0.639300  0.372
  O  O967  1  0.833000  0.355700  0.360700  0.372
  O  O968  1  0.515300  0.395900  0.892600  0.372
  O  O969  1  0.484700  0.604100  0.107400  0.372
  O  O970  1  0.515300  0.104100  0.107400  0.372
  O  O971  1  0.484700  0.895900  0.892600  0.372
  O  O972  1  0.015300  0.895900  0.392600  0.372
  O  O973  1  0.984700  0.104100  0.607400  0.372
  O  O974  1  0.015300  0.604100  0.607400  0.372
  O  O975  1  0.984700  0.395900  0.392600  0.372
  O  O976  1  0.677000  0.321000  0.901200  0.372
  O  O977  1  0.323000  0.679000  0.098800  0.372
  O  O978  1  0.677000  0.179000  0.098800  0.372
  O  O979  1  0.323000  0.821000  0.901200  0.372
  O  O980  1  0.177000  0.821000  0.401200  0.372
  O  O981  1  0.823000  0.179000  0.598800  0.372
  O  O982  1  0.177000  0.679000  0.598800  0.372
  O  O983  1  0.823000  0.321000  0.401200  0.372
  O  O984  1  0.738000  0.424700  0.895700  0.372
  O  O985  1  0.262000  0.575300  0.104300  0.372
  O  O986  1  0.738000  0.075300  0.104300  0.372
  O  O987  1  0.262000  0.924700  0.895700  0.372
  O  O988  1  0.238000  0.924700  0.395700  0.372
  O  O989  1  0.762000  0.075300  0.604300  0.372
  O  O990  1  0.238000  0.575300  0.604300  0.372
  O  O991  1  0.762000  0.424700  0.395700  0.372
  O  O992  1  0.631000  0.392500  0.912100  0.628
  O  O993  1  0.369000  0.607500  0.087900  0.628
  O  O994  1  0.631000  0.107500  0.087900  0.628
  O  O995  1  0.369000  0.892500  0.912100  0.628
  O  O996  1  0.131000  0.892500  0.412100  0.628
  O  O997  1  0.869000  0.107500  0.587900  0.628
  O  O998  1  0.131000  0.607500  0.587900  0.628
  O  O999  1  0.869000  0.392500  0.412100  0.628
  O  O1000  1  0.756700  0.409300  0.876700  0.628
  O  O1001  1  0.243300  0.590700  0.123300  0.628
  O  O1002  1  0.756700  0.090700  0.123300  0.628
  O  O1003  1  0.243300  0.909300  0.876700  0.628
  O  O1004  1  0.256700  0.909300  0.376700  0.628
  O  O1005  1  0.743300  0.090700  0.623300  0.628
  O  O1006  1  0.256700  0.590700  0.623300  0.628
  O  O1007  1  0.743300  0.409300  0.376700  0.628
  O  O1008  1  0.533700  0.385500  0.871500  0.628
  O  O1009  1  0.466300  0.614500  0.128500  0.628
  O  O1010  1  0.533700  0.114500  0.128500  0.628
  O  O1011  1  0.466300  0.885500  0.871500  0.628
  O  O1012  1  0.033700  0.885500  0.371500  0.628
  O  O1013  1  0.966300  0.114500  0.628500  0.628
  O  O1014  1  0.033700  0.614500  0.628500  0.628
  O  O1015  1  0.966300  0.385500  0.371500  0.628
  O  O1016  1  0.686000  0.306900  0.881200  0.628
  O  O1017  1  0.314000  0.693100  0.118800  0.628
  O  O1018  1  0.686000  0.193100  0.118800  0.628
  O  O1019  1  0.314000  0.806900  0.881200  0.628
  O  O1020  1  0.186000  0.806900  0.381200  0.628
  O  O1021  1  0.814000  0.193100  0.618800  0.628
  O  O1022  1  0.186000  0.693100  0.618800  0.628
  O  O1023  1  0.814000  0.306900  0.381200  0.628
