data_image0
_cell_length_a       20.8608
_cell_length_b       20.8608
_cell_length_c       25.0194
_cell_angle_alpha    90
_cell_angle_beta     90
_cell_angle_gamma    90

_symmetry_space_group_name_H-M    "P 1"
_symmetry_int_tables_number       1

loop_
  _symmetry_equiv_pos_as_xyz
  'x, y, z'

loop_
  _atom_site_label
  _atom_site_occupancy
  _atom_site_fract_x
  _atom_site_fract_y
  _atom_site_fract_z
  _atom_site_thermal_displace_type
  _atom_site_B_iso_or_equiv
  _atom_site_type_symbol
  Br1      1.0000 0.75000  0.75000  0.81758  Biso   1.000  Br
  Br2      1.0000 0.25000  0.25000  0.31758  Biso   1.000  Br
  Br3      1.0000 0.25000  0.25000  0.18242  Biso   1.000  Br
  Br4      1.0000 0.75000  0.75000  0.68242  Biso   1.000  Br
  C1       1.0000 0.75000  0.75000  0.06250  Biso   1.000  C
  C2       1.0000 0.25000  0.25000  0.56250  Biso   1.000  C
  C3       1.0000 0.25000  0.25000  0.93750  Biso   1.000  C
  C4       1.0000 0.75000  0.75000  0.43750  Biso   1.000  C
  C5       1.0000 0.76240  0.80430  0.14740  Biso   1.000  C
  C6       1.0000 0.19570  0.26240  0.64740  Biso   1.000  C
  C7       1.0000 0.30430  0.23760  0.64740  Biso   1.000  C
  C8       1.0000 0.73760  0.69570  0.14740  Biso   1.000  C
  C9       1.0000 0.23760  0.19570  0.85260  Biso   1.000  C
  C10      1.0000 0.80430  0.73760  0.35260  Biso   1.000  C
  C11      1.0000 0.69570  0.76240  0.35260  Biso   1.000  C
  C12      1.0000 0.26240  0.30430  0.85260  Biso   1.000  C
  C13      1.0000 0.77120  0.86010  0.18260  Biso   1.000  C
  C14      1.0000 0.13990  0.27120  0.68260  Biso   1.000  C
  C15      1.0000 0.36010  0.22880  0.68260  Biso   1.000  C
  C16      1.0000 0.72880  0.63990  0.18260  Biso   1.000  C
  C17      1.0000 0.22880  0.13990  0.81740  Biso   1.000  C
  C18      1.0000 0.86010  0.72880  0.31740  Biso   1.000  C
  C19      1.0000 0.63990  0.77120  0.31740  Biso   1.000  C
  C20      1.0000 0.27120  0.36010  0.81740  Biso   1.000  C
  C21      1.0000 0.77180  0.89420  0.27020  Biso   1.000  C
  C22      1.0000 0.10580  0.27180  0.77020  Biso   1.000  C
  C23      1.0000 0.39420  0.22820  0.77020  Biso   1.000  C
  C24      1.0000 0.72820  0.60580  0.27020  Biso   1.000  C
  C25      1.0000 0.22820  0.10580  0.72980  Biso   1.000  C
  C26      1.0000 0.89420  0.72820  0.22980  Biso   1.000  C
  C27      1.0000 0.60580  0.77180  0.22980  Biso   1.000  C
  C28      1.0000 0.27180  0.39420  0.72980  Biso   1.000  C
  H1       1.0000 0.76960  0.88450  0.30640  Biso   1.000  H
  H2       1.0000 0.11550  0.26960  0.80640  Biso   1.000  H
  H3       1.0000 0.38450  0.23040  0.80640  Biso   1.000  H
  H4       1.0000 0.73040  0.61550  0.30640  Biso   1.000  H
  H5       1.0000 0.23040  0.11550  0.69360  Biso   1.000  H
  H6       1.0000 0.88450  0.73040  0.19360  Biso   1.000  H
  H7       1.0000 0.61550  0.76960  0.19360  Biso   1.000  H
  H8       1.0000 0.26960  0.38450  0.69360  Biso   1.000  H
  C29      1.0000 0.76330  0.80530  0.09160  Biso   1.000  C
  C30      1.0000 0.19470  0.26330  0.59160  Biso   1.000  C
  C31      1.0000 0.30530  0.23670  0.59160  Biso   1.000  C
  C32      1.0000 0.73670  0.69470  0.09160  Biso   1.000  C
  C33      1.0000 0.23670  0.19470  0.90840  Biso   1.000  C
  C34      1.0000 0.80530  0.73670  0.40840  Biso   1.000  C
  C35      1.0000 0.69470  0.76330  0.40840  Biso   1.000  C
  C36      1.0000 0.26330  0.30530  0.90840  Biso   1.000  C
  H9       1.0000 0.77290  0.84320  0.07370  Biso   1.000  H
  H10      1.0000 0.15680  0.27290  0.57370  Biso   1.000  H
  H11      1.0000 0.34320  0.22710  0.57370  Biso   1.000  H
  H12      1.0000 0.72710  0.65680  0.07370  Biso   1.000  H
  H13      1.0000 0.22710  0.15680  0.92630  Biso   1.000  H
  H14      1.0000 0.84320  0.72710  0.42630  Biso   1.000  H
  H15      1.0000 0.65680  0.77290  0.42630  Biso   1.000  H
  H16      1.0000 0.27290  0.34320  0.92630  Biso   1.000  H
  C37      1.0000 0.75000  0.75000  0.00350  Biso   1.000  C
  C38      1.0000 0.25000  0.25000  0.50350  Biso   1.000  C
  C39      1.0000 0.25000  0.25000  0.99650  Biso   1.000  C
  C40      1.0000 0.75000  0.75000  0.49650  Biso   1.000  C
  C41      1.0000 0.77980  0.92230  0.16410  Biso   1.000  C
  C42      1.0000 0.07770  0.27980  0.66410  Biso   1.000  C
  C43      1.0000 0.42230  0.22020  0.66410  Biso   1.000  C
  C44      1.0000 0.72020  0.57770  0.16410  Biso   1.000  C
  C45      1.0000 0.22020  0.07770  0.83590  Biso   1.000  C
  C46      1.0000 0.92230  0.72020  0.33590  Biso   1.000  C
  C47      1.0000 0.57770  0.77980  0.33590  Biso   1.000  C
  C48      1.0000 0.27980  0.42230  0.83590  Biso   1.000  C
  H17      1.0000 0.78300  0.93080  0.12770  Biso   1.000  H
  H18      1.0000 0.06920  0.28300  0.62770  Biso   1.000  H
  H19      1.0000 0.43080  0.21700  0.62770  Biso   1.000  H
  H20      1.0000 0.71700  0.56920  0.12770  Biso   1.000  H
  H21      1.0000 0.21700  0.06920  0.87230  Biso   1.000  H
  H22      1.0000 0.93080  0.71700  0.37230  Biso   1.000  H
  H23      1.0000 0.56920  0.78300  0.37230  Biso   1.000  H
  H24      1.0000 0.28300  0.43080  0.87230  Biso   1.000  H
  C49      1.0000 0.78000  0.95770  0.25530  Biso   1.000  C
  C50      1.0000 0.04230  0.28000  0.75530  Biso   1.000  C
  C51      1.0000 0.45770  0.22000  0.75530  Biso   1.000  C
  C52      1.0000 0.72000  0.54230  0.25530  Biso   1.000  C
  C53      1.0000 0.22000  0.04230  0.74470  Biso   1.000  C
  C54      1.0000 0.95770  0.72000  0.24470  Biso   1.000  C
  C55      1.0000 0.54230  0.78000  0.24470  Biso   1.000  C
  C56      1.0000 0.28000  0.45770  0.74470  Biso   1.000  C
  H25      1.0000 0.78310  0.98980  0.28100  Biso   1.000  H
  H26      1.0000 0.01020  0.28310  0.78100  Biso   1.000  H
  H27      1.0000 0.48980  0.21690  0.78100  Biso   1.000  H
  H28      1.0000 0.71690  0.51020  0.28100  Biso   1.000  H
  H29      1.0000 0.21690  0.01020  0.71900  Biso   1.000  H
  H30      1.0000 0.98980  0.71690  0.21900  Biso   1.000  H
  H31      1.0000 0.51020  0.78310  0.21900  Biso   1.000  H
  H32      1.0000 0.28310  0.48980  0.71900  Biso   1.000  H
  C57      1.0000 0.78350  0.97240  0.20180  Biso   1.000  C
  C58      1.0000 0.02760  0.28350  0.70180  Biso   1.000  C
  C59      1.0000 0.47240  0.21650  0.70180  Biso   1.000  C
  C60      1.0000 0.71650  0.52760  0.20180  Biso   1.000  C
  C61      1.0000 0.21650  0.02760  0.79820  Biso   1.000  C
  C62      1.0000 0.97240  0.71650  0.29820  Biso   1.000  C
  C63      1.0000 0.52760  0.78350  0.29820  Biso   1.000  C
  C64      1.0000 0.28350  0.47240  0.79820  Biso   1.000  C
  H33      1.0000 0.78820  0.01470  0.19060  Biso   1.000  H
  H34      1.0000 0.98530  0.28820  0.69060  Biso   1.000  H
  H35      1.0000 0.51470  0.21180  0.69060  Biso   1.000  H
  H36      1.0000 0.71180  0.48530  0.19060  Biso   1.000  H
  H37      1.0000 0.21180  0.98530  0.80940  Biso   1.000  H
  H38      1.0000 0.01470  0.71180  0.30940  Biso   1.000  H
  H39      1.0000 0.48530  0.78820  0.30940  Biso   1.000  H
  H40      1.0000 0.28820  0.51470  0.80940  Biso   1.000  H
  C65      1.0000 0.75000  0.75000  0.89340  Biso   1.000  C
  C66      1.0000 0.25000  0.25000  0.39340  Biso   1.000  C
  C67      1.0000 0.25000  0.25000  0.10660  Biso   1.000  C
  C68      1.0000 0.75000  0.75000  0.60660  Biso   1.000  C
  C69      1.0000 0.70930  0.71200  0.97620  Biso   1.000  C
  C70      1.0000 0.28800  0.20930  0.47620  Biso   1.000  C
  C71      1.0000 0.21200  0.29070  0.47620  Biso   1.000  C
  C72      1.0000 0.79070  0.78800  0.97620  Biso   1.000  C
  C73      1.0000 0.29070  0.28800  0.02380  Biso   1.000  C
  C74      1.0000 0.71200  0.79070  0.52380  Biso   1.000  C
  C75      1.0000 0.78800  0.70930  0.52380  Biso   1.000  C
  C76      1.0000 0.20930  0.21200  0.02380  Biso   1.000  C
  H41      1.0000 0.68140  0.68520  0.99460  Biso   1.000  H
  H42      1.0000 0.31480  0.18140  0.49460  Biso   1.000  H
  H43      1.0000 0.18520  0.31860  0.49460  Biso   1.000  H
  H44      1.0000 0.81860  0.81480  0.99460  Biso   1.000  H
  H45      1.0000 0.31860  0.31480  0.00540  Biso   1.000  H
  H46      1.0000 0.68520  0.81860  0.50540  Biso   1.000  H
  H47      1.0000 0.81480  0.68140  0.50540  Biso   1.000  H
  H48      1.0000 0.18140  0.18520  0.00540  Biso   1.000  H
  C77      1.0000 0.70890  0.71270  0.92090  Biso   1.000  C
  C78      1.0000 0.28730  0.20890  0.42090  Biso   1.000  C
  C79      1.0000 0.21270  0.29110  0.42090  Biso   1.000  C
  C80      1.0000 0.79110  0.78730  0.92090  Biso   1.000  C
  C81      1.0000 0.29110  0.28730  0.07910  Biso   1.000  C
  C82      1.0000 0.71270  0.79110  0.57910  Biso   1.000  C
  C83      1.0000 0.78730  0.70890  0.57910  Biso   1.000  C
  C84      1.0000 0.20890  0.21270  0.07910  Biso   1.000  C
  H49      1.0000 0.67980  0.68700  0.90240  Biso   1.000  H
  H50      1.0000 0.31300  0.17980  0.40240  Biso   1.000  H
  H51      1.0000 0.18700  0.32020  0.40240  Biso   1.000  H
  H52      1.0000 0.82020  0.81300  0.90240  Biso   1.000  H
  H53      1.0000 0.32020  0.31300  0.09760  Biso   1.000  H
  H54      1.0000 0.68700  0.82020  0.59760  Biso   1.000  H
  H55      1.0000 0.81300  0.67980  0.59760  Biso   1.000  H
  H56      1.0000 0.17980  0.18700  0.09760  Biso   1.000  H
  Co1      1.0000 0.75000  0.75000  0.25000  Biso   1.000  Co
  Co2      1.0000 0.25000  0.25000  0.75000  Biso   1.000  Co
  N1       1.0000 0.76700  0.84650  0.23540  Biso   1.000  N
  N2       1.0000 0.15350  0.26700  0.73540  Biso   1.000  N
  N3       1.0000 0.34650  0.23300  0.73540  Biso   1.000  N
  N4       1.0000 0.73300  0.65350  0.23540  Biso   1.000  N
  N5       1.0000 0.23300  0.15350  0.76460  Biso   1.000  N
  N6       1.0000 0.84650  0.73300  0.26460  Biso   1.000  N
  N7       1.0000 0.65350  0.76700  0.26460  Biso   1.000  N
  N8       1.0000 0.26700  0.34650  0.76460  Biso   1.000  N
  N9       1.0000 0.75000  0.75000  0.17410  Biso   1.000  N
  N10      1.0000 0.25000  0.25000  0.67410  Biso   1.000  N
  N11      1.0000 0.25000  0.25000  0.82590  Biso   1.000  N
  N12      1.0000 0.75000  0.75000  0.32590  Biso   1.000  N
  C85      1.0000 0.51900  0.69880  0.02390  Biso   1.000  C
  C86      1.0000 0.30120  0.01900  0.52390  Biso   1.000  C
  C87      1.0000 0.19880  0.48100  0.52390  Biso   1.000  C
  C88      1.0000 0.98100  0.80120  0.02390  Biso   1.000  C
  C89      1.0000 0.48100  0.30120  0.97610  Biso   1.000  C
  C90      1.0000 0.69880  0.98100  0.47610  Biso   1.000  C
  C91      1.0000 0.80120  0.51900  0.47610  Biso   1.000  C
  C92      1.0000 0.01900  0.19880  0.97610  Biso   1.000  C
  C93      1.0000 0.50630  0.76500  0.04440  Biso   1.000  C
  C94      1.0000 0.23500  0.00630  0.54440  Biso   1.000  C
  C95      1.0000 0.26500  0.49370  0.54440  Biso   1.000  C
  C96      1.0000 0.99370  0.73500  0.04440  Biso   1.000  C
  C97      1.0000 0.49370  0.23500  0.95560  Biso   1.000  C
  C98      1.0000 0.76500  0.99370  0.45560  Biso   1.000  C
  C99      1.0000 0.73500  0.50630  0.45560  Biso   1.000  C
  C100     1.0000 0.00630  0.26500  0.95560  Biso   1.000  C
  C101     1.0000 0.55990  0.60100  0.90390  Biso   1.000  C
  C102     1.0000 0.39900  0.05990  0.40390  Biso   1.000  C
  C103     1.0000 0.10100  0.44010  0.40390  Biso   1.000  C
  C104     1.0000 0.94010  0.89900  0.90390  Biso   1.000  C
  C105     1.0000 0.44010  0.39900  0.09610  Biso   1.000  C
  C106     1.0000 0.60100  0.94010  0.59610  Biso   1.000  C
  C107     1.0000 0.89900  0.55990  0.59610  Biso   1.000  C
  C108     1.0000 0.05990  0.10100  0.09610  Biso   1.000  C
  C109     1.0000 0.55980  0.55100  0.12180  Biso   1.000  C
  C110     1.0000 0.44900  0.05980  0.62180  Biso   1.000  C
  C111     1.0000 0.05100  0.44020  0.62180  Biso   1.000  C
  C112     1.0000 0.94020  0.94900  0.12180  Biso   1.000  C
  C113     1.0000 0.44020  0.44900  0.87820  Biso   1.000  C
  C114     1.0000 0.55100  0.94020  0.37820  Biso   1.000  C
  C115     1.0000 0.94900  0.55980  0.37820  Biso   1.000  C
  C116     1.0000 0.05980  0.05100  0.87820  Biso   1.000  C
  C117     1.0000 0.56640  0.62720  0.84890  Biso   1.000  C
  C118     1.0000 0.37280  0.06640  0.34890  Biso   1.000  C
  C119     1.0000 0.12720  0.43360  0.34890  Biso   1.000  C
  C120     1.0000 0.93360  0.87280  0.84890  Biso   1.000  C
  C121     1.0000 0.43360  0.37280  0.15110  Biso   1.000  C
  C122     1.0000 0.62720  0.93360  0.65110  Biso   1.000  C
  C123     1.0000 0.87280  0.56640  0.65110  Biso   1.000  C
  C124     1.0000 0.06640  0.12720  0.15110  Biso   1.000  C
  C125     1.0000 0.52460  0.68870  0.77560  Biso   1.000  C
  C126     1.0000 0.31130  0.02460  0.27560  Biso   1.000  C
  C127     1.0000 0.18870  0.47540  0.27560  Biso   1.000  C
  C128     1.0000 0.97540  0.81130  0.77560  Biso   1.000  C
  C129     1.0000 0.47540  0.31130  0.22440  Biso   1.000  C
  C130     1.0000 0.68870  0.97540  0.72440  Biso   1.000  C
  C131     1.0000 0.81130  0.52460  0.72440  Biso   1.000  C
  C132     1.0000 0.02460  0.18870  0.22440  Biso   1.000  C
  H57      1.0000 0.49150  0.71280  0.76100  Biso   1.000  H
  H58      1.0000 0.28720  0.99150  0.26100  Biso   1.000  H
  H59      1.0000 0.21280  0.50850  0.26100  Biso   1.000  H
  H60      1.0000 0.00850  0.78720  0.76100  Biso   1.000  H
  H61      1.0000 0.50850  0.28720  0.23900  Biso   1.000  H
  H62      1.0000 0.71280  0.00850  0.73900  Biso   1.000  H
  H63      1.0000 0.78720  0.49150  0.73900  Biso   1.000  H
  H64      1.0000 0.99150  0.21280  0.23900  Biso   1.000  H
  C133     1.0000 0.59750  0.22690  0.07860  Biso   1.000  C
  C134     1.0000 0.77310  0.09750  0.57860  Biso   1.000  C
  C135     1.0000 0.72690  0.40250  0.57860  Biso   1.000  C
  C136     1.0000 0.90250  0.27310  0.07860  Biso   1.000  C
  C137     1.0000 0.40250  0.77310  0.92140  Biso   1.000  C
  C138     1.0000 0.22690  0.90250  0.42140  Biso   1.000  C
  C139     1.0000 0.27310  0.59750  0.42140  Biso   1.000  C
  C140     1.0000 0.09750  0.72690  0.92140  Biso   1.000  C
  C141     1.0000 0.71690  0.33950  0.96200  Biso   1.000  C
  C142     1.0000 0.66050  0.21690  0.46200  Biso   1.000  C
  C143     1.0000 0.83950  0.28310  0.46200  Biso   1.000  C
  C144     1.0000 0.78310  0.16050  0.96200  Biso   1.000  C
  C145     1.0000 0.28310  0.66050  0.03800  Biso   1.000  C
  C146     1.0000 0.33950  0.78310  0.53800  Biso   1.000  C
  C147     1.0000 0.16050  0.71690  0.53800  Biso   1.000  C
  C148     1.0000 0.21690  0.83950  0.03800  Biso   1.000  C
  C149     1.0000 0.70220  0.38200  0.91450  Biso   1.000  C
  C150     1.0000 0.61800  0.20220  0.41450  Biso   1.000  C
  C151     1.0000 0.88200  0.29780  0.41450  Biso   1.000  C
  C152     1.0000 0.79780  0.11800  0.91450  Biso   1.000  C
  C153     1.0000 0.29780  0.61800  0.08550  Biso   1.000  C
  C154     1.0000 0.38200  0.79780  0.58550  Biso   1.000  C
  C155     1.0000 0.11800  0.70220  0.58550  Biso   1.000  C
  C156     1.0000 0.20220  0.88200  0.08550  Biso   1.000  C
  C157     1.0000 0.55250  0.18260  0.10540  Biso   1.000  C
  C158     1.0000 0.81740  0.05250  0.60540  Biso   1.000  C
  C159     1.0000 0.68260  0.44750  0.60540  Biso   1.000  C
  C160     1.0000 0.94750  0.31740  0.10540  Biso   1.000  C
  C161     1.0000 0.44750  0.81740  0.89460  Biso   1.000  C
  C162     1.0000 0.18260  0.94750  0.39460  Biso   1.000  C
  C163     1.0000 0.31740  0.55250  0.39460  Biso   1.000  C
  C164     1.0000 0.05250  0.68260  0.89460  Biso   1.000  C
  C165     1.0000 0.48760  0.19400  0.10910  Biso   1.000  C
  C166     1.0000 0.80600  0.98760  0.60910  Biso   1.000  C
  C167     1.0000 0.69400  0.51240  0.60910  Biso   1.000  C
  C168     1.0000 0.01240  0.30600  0.10910  Biso   1.000  C
  C169     1.0000 0.51240  0.80600  0.89090  Biso   1.000  C
  C170     1.0000 0.19400  0.01240  0.39090  Biso   1.000  C
  C171     1.0000 0.30600  0.48760  0.39090  Biso   1.000  C
  C172     1.0000 0.98760  0.69400  0.89090  Biso   1.000  C
  H65      1.0000 0.47070  0.22950  0.09170  Biso   1.000  H
  H66      1.0000 0.77050  0.97070  0.59170  Biso   1.000  H
  H67      1.0000 0.72950  0.52930  0.59170  Biso   1.000  H
  H68      1.0000 0.02930  0.27050  0.09170  Biso   1.000  H
  H69      1.0000 0.52930  0.77050  0.90830  Biso   1.000  H
  H70      1.0000 0.22950  0.02930  0.40830  Biso   1.000  H
  H71      1.0000 0.27050  0.47070  0.40830  Biso   1.000  H
  H72      1.0000 0.97070  0.72950  0.90830  Biso   1.000  H
  C173     1.0000 0.43160  0.84700  0.06950  Biso   1.000  C
  C174     1.0000 0.15300  0.93160  0.56950  Biso   1.000  C
  C175     1.0000 0.34700  0.56840  0.56950  Biso   1.000  C
  C176     1.0000 0.06840  0.65300  0.06950  Biso   1.000  C
  C177     1.0000 0.56840  0.15300  0.93050  Biso   1.000  C
  C178     1.0000 0.84700  0.06840  0.43050  Biso   1.000  C
  C179     1.0000 0.65300  0.43160  0.43050  Biso   1.000  C
  C180     1.0000 0.93160  0.34700  0.93050  Biso   1.000  C
  H73      1.0000 0.38980  0.86160  0.07320  Biso   1.000  H
  H74      1.0000 0.13840  0.88980  0.57320  Biso   1.000  H
  H75      1.0000 0.36160  0.61020  0.57320  Biso   1.000  H
  H76      1.0000 0.11020  0.63840  0.07320  Biso   1.000  H
  H77      1.0000 0.61020  0.13840  0.92680  Biso   1.000  H
  H78      1.0000 0.86160  0.11020  0.42680  Biso   1.000  H
  H79      1.0000 0.63840  0.38980  0.42680  Biso   1.000  H
  H80      1.0000 0.88980  0.36160  0.92680  Biso   1.000  H
  C181     1.0000 0.48390  0.88630  0.08210  Biso   1.000  C
  C182     1.0000 0.11370  0.98390  0.58210  Biso   1.000  C
  C183     1.0000 0.38630  0.51610  0.58210  Biso   1.000  C
  C184     1.0000 0.01610  0.61370  0.08210  Biso   1.000  C
  C185     1.0000 0.51610  0.11370  0.91790  Biso   1.000  C
  C186     1.0000 0.88630  0.01610  0.41790  Biso   1.000  C
  C187     1.0000 0.61370  0.48390  0.41790  Biso   1.000  C
  C188     1.0000 0.98390  0.38630  0.91790  Biso   1.000  C
  H81      1.0000 0.47640  0.92760  0.09470  Biso   1.000  H
  H82      1.0000 0.07240  0.97640  0.59470  Biso   1.000  H
  H83      1.0000 0.42760  0.52360  0.59470  Biso   1.000  H
  H84      1.0000 0.02360  0.57240  0.09470  Biso   1.000  H
  H85      1.0000 0.52360  0.07240  0.90530  Biso   1.000  H
  H86      1.0000 0.92760  0.02360  0.40530  Biso   1.000  H
  H87      1.0000 0.57240  0.47640  0.40530  Biso   1.000  H
  H88      1.0000 0.97640  0.42760  0.90530  Biso   1.000  H
  C189     1.0000 0.56030  0.54500  0.18170  Biso   1.000  C
  C190     1.0000 0.45500  0.06030  0.68170  Biso   1.000  C
  C191     1.0000 0.04500  0.43970  0.68170  Biso   1.000  C
  C192     1.0000 0.93970  0.95500  0.18170  Biso   1.000  C
  C193     1.0000 0.43970  0.45500  0.81830  Biso   1.000  C
  C194     1.0000 0.54500  0.93970  0.31830  Biso   1.000  C
  C195     1.0000 0.95500  0.56030  0.31830  Biso   1.000  C
  C196     1.0000 0.06030  0.04500  0.81830  Biso   1.000  C
  C197     1.0000 0.57990  0.67950  0.74710  Biso   1.000  C
  C198     1.0000 0.32050  0.07990  0.24710  Biso   1.000  C
  C199     1.0000 0.17950  0.42010  0.24710  Biso   1.000  C
  C200     1.0000 0.92010  0.82050  0.74710  Biso   1.000  C
  C201     1.0000 0.42010  0.32050  0.25290  Biso   1.000  C
  C202     1.0000 0.67950  0.92010  0.75290  Biso   1.000  C
  C203     1.0000 0.82050  0.57990  0.75290  Biso   1.000  C
  C204     1.0000 0.07990  0.17950  0.25290  Biso   1.000  C
  H89      1.0000 0.58450  0.69720  0.71320  Biso   1.000  H
  H90      1.0000 0.30280  0.08450  0.21320  Biso   1.000  H
  H91      1.0000 0.19720  0.41550  0.21320  Biso   1.000  H
  H92      1.0000 0.91550  0.80280  0.71320  Biso   1.000  H
  H93      1.0000 0.41550  0.30280  0.28680  Biso   1.000  H
  H94      1.0000 0.69720  0.91550  0.78680  Biso   1.000  H
  H95      1.0000 0.80280  0.58450  0.78680  Biso   1.000  H
  H96      1.0000 0.08450  0.19720  0.28680  Biso   1.000  H
  C205     1.0000 0.62250  0.61770  0.82000  Biso   1.000  C
  C206     1.0000 0.38230  0.12250  0.32000  Biso   1.000  C
  C207     1.0000 0.11770  0.37750  0.32000  Biso   1.000  C
  C208     1.0000 0.87750  0.88230  0.82000  Biso   1.000  C
  C209     1.0000 0.37750  0.38230  0.18000  Biso   1.000  C
  C210     1.0000 0.61770  0.87750  0.68000  Biso   1.000  C
  C211     1.0000 0.88230  0.62250  0.68000  Biso   1.000  C
  C212     1.0000 0.12250  0.11770  0.18000  Biso   1.000  C
  H97      1.0000 0.65570  0.59380  0.83490  Biso   1.000  H
  H98      1.0000 0.40620  0.15570  0.33490  Biso   1.000  H
  H99      1.0000 0.09380  0.34430  0.33490  Biso   1.000  H
  H100     1.0000 0.84430  0.90620  0.83490  Biso   1.000  H
  H101     1.0000 0.34430  0.40620  0.16510  Biso   1.000  H
  H102     1.0000 0.59380  0.84430  0.66510  Biso   1.000  H
  H103     1.0000 0.90620  0.65570  0.66510  Biso   1.000  H
  H104     1.0000 0.15570  0.09380  0.16510  Biso   1.000  H
  C213     1.0000 0.64110  0.38270  0.89280  Biso   1.000  C
  C214     1.0000 0.61730  0.14110  0.39280  Biso   1.000  C
  C215     1.0000 0.88270  0.35890  0.39280  Biso   1.000  C
  C216     1.0000 0.85890  0.11730  0.89280  Biso   1.000  C
  C217     1.0000 0.35890  0.61730  0.10720  Biso   1.000  C
  C218     1.0000 0.38270  0.85890  0.60720  Biso   1.000  C
  C219     1.0000 0.11730  0.64110  0.60720  Biso   1.000  C
  C220     1.0000 0.14110  0.88270  0.10720  Biso   1.000  C
  H105     1.0000 0.60860  0.35790  0.90760  Biso   1.000  H
  H106     1.0000 0.64210  0.10860  0.40760  Biso   1.000  H
  H107     1.0000 0.85790  0.39140  0.40760  Biso   1.000  H
  H108     1.0000 0.89140  0.14210  0.90760  Biso   1.000  H
  H109     1.0000 0.39140  0.64210  0.09240  Biso   1.000  H
  H110     1.0000 0.35790  0.89140  0.59240  Biso   1.000  H
  H111     1.0000 0.14210  0.60860  0.59240  Biso   1.000  H
  H112     1.0000 0.10860  0.85790  0.09240  Biso   1.000  H
  C221     1.0000 0.62890  0.42170  0.84760  Biso   1.000  C
  C222     1.0000 0.57830  0.12890  0.34760  Biso   1.000  C
  C223     1.0000 0.92170  0.37110  0.34760  Biso   1.000  C
  C224     1.0000 0.87110  0.07830  0.84760  Biso   1.000  C
  C225     1.0000 0.37110  0.57830  0.15240  Biso   1.000  C
  C226     1.0000 0.42170  0.87110  0.65240  Biso   1.000  C
  C227     1.0000 0.07830  0.62890  0.65240  Biso   1.000  C
  C228     1.0000 0.12890  0.92170  0.15240  Biso   1.000  C
  H113     1.0000 0.58810  0.42270  0.83260  Biso   1.000  H
  H114     1.0000 0.57730  0.08810  0.33260  Biso   1.000  H
  H115     1.0000 0.92270  0.41190  0.33260  Biso   1.000  H
  H116     1.0000 0.91190  0.07730  0.83260  Biso   1.000  H
  H117     1.0000 0.41190  0.57730  0.16740  Biso   1.000  H
  H118     1.0000 0.42270  0.91190  0.66740  Biso   1.000  H
  H119     1.0000 0.07730  0.58810  0.66740  Biso   1.000  H
  H120     1.0000 0.08810  0.92270  0.16740  Biso   1.000  H
  C229     1.0000 0.75010  0.41910  0.89300  Biso   1.000  C
  C230     1.0000 0.58090  0.25010  0.39300  Biso   1.000  C
  C231     1.0000 0.91910  0.24990  0.39300  Biso   1.000  C
  C232     1.0000 0.74990  0.08090  0.89300  Biso   1.000  C
  C233     1.0000 0.24990  0.58090  0.10700  Biso   1.000  C
  C234     1.0000 0.41910  0.74990  0.60700  Biso   1.000  C
  C235     1.0000 0.08090  0.75010  0.60700  Biso   1.000  C
  C236     1.0000 0.25010  0.91910  0.10700  Biso   1.000  C
  H121     1.0000 0.79110  0.41890  0.90760  Biso   1.000  H
  H122     1.0000 0.58110  0.29110  0.40760  Biso   1.000  H
  H123     1.0000 0.91890  0.20890  0.40760  Biso   1.000  H
  H124     1.0000 0.70890  0.08110  0.90760  Biso   1.000  H
  H125     1.0000 0.20890  0.58110  0.09240  Biso   1.000  H
  H126     1.0000 0.41890  0.70890  0.59240  Biso   1.000  H
  H127     1.0000 0.08110  0.79110  0.59240  Biso   1.000  H
  H128     1.0000 0.29110  0.91890  0.09240  Biso   1.000  H
  C237     1.0000 0.57820  0.13270  0.13780  Biso   1.000  C
  C238     1.0000 0.86730  0.07820  0.63780  Biso   1.000  C
  C239     1.0000 0.63270  0.42180  0.63780  Biso   1.000  C
  C240     1.0000 0.92180  0.36730  0.13780  Biso   1.000  C
  C241     1.0000 0.42180  0.86730  0.86220  Biso   1.000  C
  C242     1.0000 0.13270  0.92180  0.36220  Biso   1.000  C
  C243     1.0000 0.36730  0.57820  0.36220  Biso   1.000  C
  C244     1.0000 0.07820  0.63270  0.86220  Biso   1.000  C
  H129     1.0000 0.62200  0.12470  0.13630  Biso   1.000  H
  H130     1.0000 0.87530  0.12200  0.63630  Biso   1.000  H
  H131     1.0000 0.62470  0.37800  0.63630  Biso   1.000  H
  H132     1.0000 0.87800  0.37530  0.13630  Biso   1.000  H
  H133     1.0000 0.37800  0.87530  0.86370  Biso   1.000  H
  H134     1.0000 0.12470  0.87800  0.36370  Biso   1.000  H
  H135     1.0000 0.37530  0.62200  0.36370  Biso   1.000  H
  H136     1.0000 0.12200  0.62470  0.86370  Biso   1.000  H
  C245     1.0000 0.54120  0.09590  0.17140  Biso   1.000  C
  C246     1.0000 0.90410  0.04120  0.67140  Biso   1.000  C
  C247     1.0000 0.59590  0.45880  0.67140  Biso   1.000  C
  C248     1.0000 0.95880  0.40410  0.17140  Biso   1.000  C
  C249     1.0000 0.45880  0.90410  0.82860  Biso   1.000  C
  C250     1.0000 0.09590  0.95880  0.32860  Biso   1.000  C
  C251     1.0000 0.40410  0.54120  0.32860  Biso   1.000  C
  C252     1.0000 0.04120  0.59590  0.82860  Biso   1.000  C
  H137     1.0000 0.55920  0.06480  0.19320  Biso   1.000  H
  H138     1.0000 0.93520  0.05920  0.69320  Biso   1.000  H
  H139     1.0000 0.56480  0.44080  0.69320  Biso   1.000  H
  H140     1.0000 0.94080  0.43520  0.19320  Biso   1.000  H
  H141     1.0000 0.44080  0.93520  0.80680  Biso   1.000  H
  H142     1.0000 0.06480  0.94080  0.30680  Biso   1.000  H
  H143     1.0000 0.43520  0.55920  0.30680  Biso   1.000  H
  H144     1.0000 0.05920  0.56480  0.80680  Biso   1.000  H
  C253     1.0000 0.47500  0.10760  0.17110  Biso   1.000  C
  C254     1.0000 0.89240  0.97500  0.67110  Biso   1.000  C
  C255     1.0000 0.60760  0.52500  0.67110  Biso   1.000  C
  C256     1.0000 0.02500  0.39240  0.17110  Biso   1.000  C
  C257     1.0000 0.52500  0.89240  0.82890  Biso   1.000  C
  C258     1.0000 0.10760  0.02500  0.32890  Biso   1.000  C
  C259     1.0000 0.39240  0.47500  0.32890  Biso   1.000  C
  C260     1.0000 0.97500  0.60760  0.82890  Biso   1.000  C
  H145     1.0000 0.44850  0.08370  0.19340  Biso   1.000  H
  H146     1.0000 0.91630  0.94850  0.69340  Biso   1.000  H
  H147     1.0000 0.58370  0.55150  0.69340  Biso   1.000  H
  H148     1.0000 0.05150  0.41630  0.19340  Biso   1.000  H
  H149     1.0000 0.55150  0.91630  0.80660  Biso   1.000  H
  H150     1.0000 0.08370  0.05150  0.30660  Biso   1.000  H
  H151     1.0000 0.41630  0.44850  0.30660  Biso   1.000  H
  H152     1.0000 0.94850  0.58370  0.80660  Biso   1.000  H
  C261     1.0000 0.90050  0.52360  0.98710  Biso   1.000  C
  C262     1.0000 0.47640  0.40050  0.48710  Biso   1.000  C
  C263     1.0000 0.02360  0.09950  0.48710  Biso   1.000  C
  C264     1.0000 0.59950  0.97640  0.98710  Biso   1.000  C
  C265     1.0000 0.09950  0.47640  0.01290  Biso   1.000  C
  C266     1.0000 0.52360  0.59950  0.51290  Biso   1.000  C
  C267     1.0000 0.97640  0.90050  0.51290  Biso   1.000  C
  C268     1.0000 0.40050  0.02360  0.01290  Biso   1.000  C
  H153     1.0000 0.94400  0.52770  0.97970  Biso   1.000  H
  H154     1.0000 0.47230  0.44400  0.47970  Biso   1.000  H
  H155     1.0000 0.02770  0.05600  0.47970  Biso   1.000  H
  H156     1.0000 0.55600  0.97230  0.97970  Biso   1.000  H
  H157     1.0000 0.05600  0.47230  0.02030  Biso   1.000  H
  H158     1.0000 0.52770  0.55600  0.52030  Biso   1.000  H
  H159     1.0000 0.97230  0.94400  0.52030  Biso   1.000  H
  H160     1.0000 0.44400  0.02770  0.02030  Biso   1.000  H
  C269     1.0000 0.44430  0.78550  0.05120  Biso   1.000  C
  C270     1.0000 0.21450  0.94430  0.55120  Biso   1.000  C
  C271     1.0000 0.28550  0.55570  0.55120  Biso   1.000  C
  C272     1.0000 0.05570  0.71450  0.05120  Biso   1.000  C
  C273     1.0000 0.55570  0.21450  0.94880  Biso   1.000  C
  C274     1.0000 0.78550  0.05570  0.44880  Biso   1.000  C
  C275     1.0000 0.71450  0.44430  0.44880  Biso   1.000  C
  C276     1.0000 0.94430  0.28550  0.94880  Biso   1.000  C
  H161     1.0000 0.41060  0.75790  0.04340  Biso   1.000  H
  H162     1.0000 0.24210  0.91060  0.54340  Biso   1.000  H
  H163     1.0000 0.25790  0.58940  0.54340  Biso   1.000  H
  H164     1.0000 0.08940  0.74210  0.04340  Biso   1.000  H
  H165     1.0000 0.58940  0.24210  0.95660  Biso   1.000  H
  H166     1.0000 0.75790  0.08940  0.45660  Biso   1.000  H
  H167     1.0000 0.74210  0.41060  0.45660  Biso   1.000  H
  H168     1.0000 0.91060  0.25790  0.95660  Biso   1.000  H
  C277     1.0000 0.51790  0.66240  0.82530  Biso   1.000  C
  C278     1.0000 0.33760  0.01790  0.32530  Biso   1.000  C
  C279     1.0000 0.16240  0.48210  0.32530  Biso   1.000  C
  C280     1.0000 0.98210  0.83760  0.82530  Biso   1.000  C
  C281     1.0000 0.48210  0.33760  0.17470  Biso   1.000  C
  C282     1.0000 0.66240  0.98210  0.67470  Biso   1.000  C
  C283     1.0000 0.83760  0.51790  0.67470  Biso   1.000  C
  C284     1.0000 0.01790  0.16240  0.17470  Biso   1.000  C
  H169     1.0000 0.47970  0.66830  0.84380  Biso   1.000  H
  H170     1.0000 0.33170  0.97970  0.34380  Biso   1.000  H
  H171     1.0000 0.16830  0.52030  0.34380  Biso   1.000  H
  H172     1.0000 0.02030  0.83170  0.84380  Biso   1.000  H
  H173     1.0000 0.52030  0.33170  0.15620  Biso   1.000  H
  H174     1.0000 0.66830  0.02030  0.65620  Biso   1.000  H
  H175     1.0000 0.83170  0.47970  0.65620  Biso   1.000  H
  H176     1.0000 0.97970  0.16830  0.15620  Biso   1.000  H
  C285     1.0000 0.68720  0.34990  0.13890  Biso   1.000  C
  C286     1.0000 0.65010  0.18720  0.63890  Biso   1.000  C
  C287     1.0000 0.84990  0.31280  0.63890  Biso   1.000  C
  C288     1.0000 0.81280  0.15010  0.13890  Biso   1.000  C
  C289     1.0000 0.31280  0.65010  0.86110  Biso   1.000  C
  C290     1.0000 0.34990  0.81280  0.36110  Biso   1.000  C
  C291     1.0000 0.15010  0.68720  0.36110  Biso   1.000  C
  C292     1.0000 0.18720  0.84990  0.86110  Biso   1.000  C
  C293     1.0000 0.70730  0.34500  0.19650  Biso   1.000  C
  C294     1.0000 0.65500  0.20730  0.69650  Biso   1.000  C
  C295     1.0000 0.84500  0.29270  0.69650  Biso   1.000  C
  C296     1.0000 0.79270  0.15500  0.19650  Biso   1.000  C
  C297     1.0000 0.29270  0.65500  0.80350  Biso   1.000  C
  C298     1.0000 0.34500  0.79270  0.30350  Biso   1.000  C
  C299     1.0000 0.15500  0.70730  0.30350  Biso   1.000  C
  C300     1.0000 0.20730  0.84500  0.80350  Biso   1.000  C
  C301     1.0000 0.70120  0.50590  0.02520  Biso   1.000  C
  C302     1.0000 0.49410  0.20120  0.52520  Biso   1.000  C
  C303     1.0000 0.00590  0.29880  0.52520  Biso   1.000  C
  C304     1.0000 0.79880  0.99410  0.02520  Biso   1.000  C
  C305     1.0000 0.29880  0.49410  0.97480  Biso   1.000  C
  C306     1.0000 0.50590  0.79880  0.47480  Biso   1.000  C
  C307     1.0000 0.99410  0.70120  0.47480  Biso   1.000  C
  C308     1.0000 0.20120  0.00590  0.97480  Biso   1.000  C
  C309     1.0000 0.77060  0.51380  0.01310  Biso   1.000  C
  C310     1.0000 0.48620  0.27060  0.51310  Biso   1.000  C
  C311     1.0000 0.01380  0.22940  0.51310  Biso   1.000  C
  C312     1.0000 0.72940  0.98620  0.01310  Biso   1.000  C
  C313     1.0000 0.22940  0.48620  0.98690  Biso   1.000  C
  C314     1.0000 0.51380  0.72940  0.48690  Biso   1.000  C
  C315     1.0000 0.98620  0.77060  0.48690  Biso   1.000  C
  C316     1.0000 0.27060  0.01380  0.98690  Biso   1.000  C
  C317     1.0000 0.56220  0.60200  0.21020  Biso   1.000  C
  C318     1.0000 0.39800  0.06220  0.71020  Biso   1.000  C
  C319     1.0000 0.10200  0.43780  0.71020  Biso   1.000  C
  C320     1.0000 0.93780  0.89800  0.21020  Biso   1.000  C
  C321     1.0000 0.43780  0.39800  0.78980  Biso   1.000  C
  C322     1.0000 0.60200  0.93780  0.28980  Biso   1.000  C
  C323     1.0000 0.89800  0.56220  0.28980  Biso   1.000  C
  C324     1.0000 0.06220  0.10200  0.78980  Biso   1.000  C
  H177     1.0000 0.56320  0.64110  0.19240  Biso   1.000  H
  H178     1.0000 0.35890  0.06320  0.69240  Biso   1.000  H
  H179     1.0000 0.14110  0.43680  0.69240  Biso   1.000  H
  H180     1.0000 0.93680  0.85890  0.19240  Biso   1.000  H
  H181     1.0000 0.43680  0.35890  0.80760  Biso   1.000  H
  H182     1.0000 0.64110  0.93680  0.30760  Biso   1.000  H
  H183     1.0000 0.85890  0.56320  0.30760  Biso   1.000  H
  H184     1.0000 0.06320  0.14110  0.80760  Biso   1.000  H
  C325     1.0000 0.81400  0.46670  0.02910  Biso   1.000  C
  C326     1.0000 0.53330  0.31400  0.52910  Biso   1.000  C
  C327     1.0000 0.96670  0.18600  0.52910  Biso   1.000  C
  C328     1.0000 0.68600  0.03330  0.02910  Biso   1.000  C
  C329     1.0000 0.18600  0.53330  0.97090  Biso   1.000  C
  C330     1.0000 0.46670  0.68600  0.47090  Biso   1.000  C
  C331     1.0000 0.03330  0.81400  0.47090  Biso   1.000  C
  C332     1.0000 0.31400  0.96670  0.97090  Biso   1.000  C
  H185     1.0000 0.80040  0.43150  0.04900  Biso   1.000  H
  H186     1.0000 0.56850  0.30040  0.54900  Biso   1.000  H
  H187     1.0000 0.93150  0.19960  0.54900  Biso   1.000  H
  H188     1.0000 0.69960  0.06850  0.04900  Biso   1.000  H
  H189     1.0000 0.19960  0.56850  0.95100  Biso   1.000  H
  H190     1.0000 0.43150  0.69960  0.45100  Biso   1.000  H
  H191     1.0000 0.06850  0.80040  0.45100  Biso   1.000  H
  H192     1.0000 0.30040  0.93150  0.95100  Biso   1.000  H
  C333     1.0000 0.55780  0.80520  0.05660  Biso   1.000  C
  C334     1.0000 0.19480  0.05780  0.55660  Biso   1.000  C
  C335     1.0000 0.30520  0.44220  0.55660  Biso   1.000  C
  C336     1.0000 0.94220  0.69480  0.05660  Biso   1.000  C
  C337     1.0000 0.44220  0.19480  0.94340  Biso   1.000  C
  C338     1.0000 0.80520  0.94220  0.44340  Biso   1.000  C
  C339     1.0000 0.69480  0.55780  0.44340  Biso   1.000  C
  C340     1.0000 0.05780  0.30520  0.94340  Biso   1.000  C
  H193     1.0000 0.59980  0.79140  0.05140  Biso   1.000  H
  H194     1.0000 0.20860  0.09980  0.55140  Biso   1.000  H
  H195     1.0000 0.29140  0.40020  0.55140  Biso   1.000  H
  H196     1.0000 0.90020  0.70860  0.05140  Biso   1.000  H
  H197     1.0000 0.40020  0.20860  0.94860  Biso   1.000  H
  H198     1.0000 0.79140  0.90020  0.44860  Biso   1.000  H
  H199     1.0000 0.70860  0.59980  0.44860  Biso   1.000  H
  H200     1.0000 0.09980  0.29140  0.94860  Biso   1.000  H
  C341     1.0000 0.66560  0.35910  0.23780  Biso   1.000  C
  C342     1.0000 0.64090  0.16560  0.73780  Biso   1.000  C
  C343     1.0000 0.85910  0.33440  0.73780  Biso   1.000  C
  C344     1.0000 0.83440  0.14090  0.23780  Biso   1.000  C
  C345     1.0000 0.33440  0.64090  0.76220  Biso   1.000  C
  C346     1.0000 0.35910  0.83440  0.26220  Biso   1.000  C
  C347     1.0000 0.14090  0.66560  0.26220  Biso   1.000  C
  C348     1.0000 0.16560  0.85910  0.76220  Biso   1.000  C
  H201     1.0000 0.62380  0.37110  0.22970  Biso   1.000  H
  H202     1.0000 0.62890  0.12380  0.72970  Biso   1.000  H
  H203     1.0000 0.87110  0.37620  0.72970  Biso   1.000  H
  H204     1.0000 0.87620  0.12890  0.22970  Biso   1.000  H
  H205     1.0000 0.37620  0.62890  0.77030  Biso   1.000  H
  H206     1.0000 0.37110  0.87620  0.27030  Biso   1.000  H
  H207     1.0000 0.12890  0.62380  0.27030  Biso   1.000  H
  H208     1.0000 0.12380  0.87110  0.77030  Biso   1.000  H
  C349     1.0000 0.55800  0.54060  0.29130  Biso   1.000  C
  C350     1.0000 0.45940  0.05800  0.79130  Biso   1.000  C
  C351     1.0000 0.04060  0.44200  0.79130  Biso   1.000  C
  C352     1.0000 0.94200  0.95940  0.29130  Biso   1.000  C
  C353     1.0000 0.44200  0.45940  0.70870  Biso   1.000  C
  C354     1.0000 0.54060  0.94200  0.20870  Biso   1.000  C
  C355     1.0000 0.95940  0.55800  0.20870  Biso   1.000  C
  C356     1.0000 0.05800  0.04060  0.70870  Biso   1.000  C
  H209     1.0000 0.55730  0.53910  0.32840  Biso   1.000  H
  H210     1.0000 0.46090  0.05730  0.82840  Biso   1.000  H
  H211     1.0000 0.03910  0.44270  0.82840  Biso   1.000  H
  H212     1.0000 0.94270  0.96090  0.32840  Biso   1.000  H
  H213     1.0000 0.44270  0.46090  0.67160  Biso   1.000  H
  H214     1.0000 0.53910  0.94270  0.17160  Biso   1.000  H
  H215     1.0000 0.96090  0.55730  0.17160  Biso   1.000  H
  H216     1.0000 0.05730  0.03910  0.67160  Biso   1.000  H
  C357     1.0000 0.67700  0.45800  0.82580  Biso   1.000  C
  C358     1.0000 0.54200  0.17700  0.32580  Biso   1.000  C
  C359     1.0000 0.95800  0.32300  0.32580  Biso   1.000  C
  C360     1.0000 0.82300  0.04200  0.82580  Biso   1.000  C
  C361     1.0000 0.32300  0.54200  0.17420  Biso   1.000  C
  C362     1.0000 0.45800  0.82300  0.67420  Biso   1.000  C
  C363     1.0000 0.04200  0.67700  0.67420  Biso   1.000  C
  C364     1.0000 0.17700  0.95800  0.17420  Biso   1.000  C
  H217     1.0000 0.66930  0.48300  0.79570  Biso   1.000  H
  H218     1.0000 0.51700  0.16930  0.29570  Biso   1.000  H
  H219     1.0000 0.98300  0.33070  0.29570  Biso   1.000  H
  H220     1.0000 0.83070  0.01700  0.79570  Biso   1.000  H
  H221     1.0000 0.33070  0.51700  0.20430  Biso   1.000  H
  H222     1.0000 0.48300  0.83070  0.70430  Biso   1.000  H
  H223     1.0000 0.01700  0.66930  0.70430  Biso   1.000  H
  H224     1.0000 0.16930  0.98300  0.20430  Biso   1.000  H
  C365     1.0000 0.55460  0.48440  0.26260  Biso   1.000  C
  C366     1.0000 0.51560  0.05460  0.76260  Biso   1.000  C
  C367     1.0000 0.98440  0.44540  0.76260  Biso   1.000  C
  C368     1.0000 0.94540  0.01560  0.26260  Biso   1.000  C
  C369     1.0000 0.44540  0.51560  0.73740  Biso   1.000  C
  C370     1.0000 0.48440  0.94540  0.23740  Biso   1.000  C
  C371     1.0000 0.01560  0.55460  0.23740  Biso   1.000  C
  C372     1.0000 0.05460  0.98440  0.73740  Biso   1.000  C
  H225     1.0000 0.55180  0.44520  0.28010  Biso   1.000  H
  H226     1.0000 0.55480  0.05180  0.78010  Biso   1.000  H
  H227     1.0000 0.94520  0.44820  0.78010  Biso   1.000  H
  H228     1.0000 0.94820  0.05480  0.28010  Biso   1.000  H
  H229     1.0000 0.44820  0.55480  0.71990  Biso   1.000  H
  H230     1.0000 0.44520  0.94820  0.21990  Biso   1.000  H
  H231     1.0000 0.05480  0.55180  0.21990  Biso   1.000  H
  H232     1.0000 0.05180  0.94520  0.71990  Biso   1.000  H
  C373     1.0000 0.62940  0.64330  0.76960  Biso   1.000  C
  C374     1.0000 0.35670  0.12940  0.26960  Biso   1.000  C
  C375     1.0000 0.14330  0.37060  0.26960  Biso   1.000  C
  C376     1.0000 0.87060  0.85670  0.76960  Biso   1.000  C
  C377     1.0000 0.37060  0.35670  0.23040  Biso   1.000  C
  C378     1.0000 0.64330  0.87060  0.73040  Biso   1.000  C
  C379     1.0000 0.85670  0.62940  0.73040  Biso   1.000  C
  C380     1.0000 0.12940  0.14330  0.23040  Biso   1.000  C
  H233     1.0000 0.66700  0.63640  0.75050  Biso   1.000  H
  H234     1.0000 0.36360  0.16700  0.25050  Biso   1.000  H
  H235     1.0000 0.13640  0.33300  0.25050  Biso   1.000  H
  H236     1.0000 0.83300  0.86360  0.75050  Biso   1.000  H
  H237     1.0000 0.33300  0.36360  0.24950  Biso   1.000  H
  H238     1.0000 0.63640  0.83300  0.74950  Biso   1.000  H
  H239     1.0000 0.86360  0.66700  0.74950  Biso   1.000  H
  H240     1.0000 0.16700  0.13640  0.24950  Biso   1.000  H
  C381     1.0000 0.73580  0.45730  0.84860  Biso   1.000  C
  C382     1.0000 0.54270  0.23580  0.34860  Biso   1.000  C
  C383     1.0000 0.95730  0.26420  0.34860  Biso   1.000  C
  C384     1.0000 0.76420  0.04270  0.84860  Biso   1.000  C
  C385     1.0000 0.26420  0.54270  0.15140  Biso   1.000  C
  C386     1.0000 0.45730  0.76420  0.65140  Biso   1.000  C
  C387     1.0000 0.04270  0.73580  0.65140  Biso   1.000  C
  C388     1.0000 0.23580  0.95730  0.15140  Biso   1.000  C
  H241     1.0000 0.76780  0.48310  0.83420  Biso   1.000  H
  H242     1.0000 0.51690  0.26780  0.33420  Biso   1.000  H
  H243     1.0000 0.98310  0.23220  0.33420  Biso   1.000  H
  H244     1.0000 0.73220  0.01690  0.83420  Biso   1.000  H
  H245     1.0000 0.23220  0.51690  0.16580  Biso   1.000  H
  H246     1.0000 0.48310  0.73220  0.66580  Biso   1.000  H
  H247     1.0000 0.01690  0.76780  0.66580  Biso   1.000  H
  H248     1.0000 0.26780  0.98310  0.16580  Biso   1.000  H
  C389     1.0000 0.55550  0.48700  0.20740  Biso   1.000  C
  C390     1.0000 0.51300  0.05550  0.70740  Biso   1.000  C
  C391     1.0000 0.98700  0.44450  0.70740  Biso   1.000  C
  C392     1.0000 0.94450  0.01300  0.20740  Biso   1.000  C
  C393     1.0000 0.44450  0.51300  0.79260  Biso   1.000  C
  C394     1.0000 0.48700  0.94450  0.29260  Biso   1.000  C
  C395     1.0000 0.01300  0.55550  0.29260  Biso   1.000  C
  C396     1.0000 0.05550  0.98700  0.79260  Biso   1.000  C
  H249     1.0000 0.55290  0.44930  0.18760  Biso   1.000  H
  H250     1.0000 0.55070  0.05290  0.68760  Biso   1.000  H
  H251     1.0000 0.94930  0.44710  0.68760  Biso   1.000  H
  H252     1.0000 0.94710  0.05070  0.18760  Biso   1.000  H
  H253     1.0000 0.44710  0.55070  0.81240  Biso   1.000  H
  H254     1.0000 0.44930  0.94710  0.31240  Biso   1.000  H
  H255     1.0000 0.05070  0.55290  0.31240  Biso   1.000  H
  H256     1.0000 0.05290  0.94930  0.81240  Biso   1.000  H
  C397     1.0000 0.56250  0.59980  0.26570  Biso   1.000  C
  C398     1.0000 0.40020  0.06250  0.76570  Biso   1.000  C
  C399     1.0000 0.09980  0.43750  0.76570  Biso   1.000  C
  C400     1.0000 0.93750  0.90020  0.26570  Biso   1.000  C
  C401     1.0000 0.43750  0.40020  0.73430  Biso   1.000  C
  C402     1.0000 0.59980  0.93750  0.23430  Biso   1.000  C
  C403     1.0000 0.90020  0.56250  0.23430  Biso   1.000  C
  C404     1.0000 0.06250  0.09980  0.73430  Biso   1.000  C
  H257     1.0000 0.56570  0.63740  0.28550  Biso   1.000  H
  H258     1.0000 0.36260  0.06570  0.78550  Biso   1.000  H
  H259     1.0000 0.13740  0.43430  0.78550  Biso   1.000  H
  H260     1.0000 0.93430  0.86260  0.28550  Biso   1.000  H
  H261     1.0000 0.43430  0.36260  0.71450  Biso   1.000  H
  H262     1.0000 0.63740  0.93430  0.21450  Biso   1.000  H
  H263     1.0000 0.86260  0.56570  0.21450  Biso   1.000  H
  H264     1.0000 0.06570  0.13740  0.71450  Biso   1.000  H
  C405     1.0000 0.76870  0.32610  0.21000  Biso   1.000  C
  C406     1.0000 0.67390  0.26870  0.71000  Biso   1.000  C
  C407     1.0000 0.82610  0.23130  0.71000  Biso   1.000  C
  C408     1.0000 0.73130  0.17390  0.21000  Biso   1.000  C
  C409     1.0000 0.23130  0.67390  0.79000  Biso   1.000  C
  C410     1.0000 0.32610  0.73130  0.29000  Biso   1.000  C
  C411     1.0000 0.17390  0.76870  0.29000  Biso   1.000  C
  C412     1.0000 0.26870  0.82610  0.79000  Biso   1.000  C
  H265     1.0000 0.79740  0.31380  0.18360  Biso   1.000  H
  H266     1.0000 0.68620  0.29740  0.68360  Biso   1.000  H
  H267     1.0000 0.81380  0.20260  0.68360  Biso   1.000  H
  H268     1.0000 0.70260  0.18620  0.18360  Biso   1.000  H
  H269     1.0000 0.20260  0.68620  0.81640  Biso   1.000  H
  H270     1.0000 0.31380  0.70260  0.31640  Biso   1.000  H
  H271     1.0000 0.18620  0.79740  0.31640  Biso   1.000  H
  H272     1.0000 0.29740  0.81380  0.81640  Biso   1.000  H
  C413     1.0000 0.68400  0.35590  0.28970  Biso   1.000  C
  C414     1.0000 0.64410  0.18400  0.78970  Biso   1.000  C
  C415     1.0000 0.85590  0.31600  0.78970  Biso   1.000  C
  C416     1.0000 0.81600  0.14410  0.28970  Biso   1.000  C
  C417     1.0000 0.31600  0.64410  0.71030  Biso   1.000  C
  C418     1.0000 0.35590  0.81600  0.21030  Biso   1.000  C
  C419     1.0000 0.14410  0.68400  0.21030  Biso   1.000  C
  C420     1.0000 0.18400  0.85590  0.71030  Biso   1.000  C
  H273     1.0000 0.65470  0.36480  0.31680  Biso   1.000  H
  H274     1.0000 0.63520  0.15470  0.81680  Biso   1.000  H
  H275     1.0000 0.86480  0.34530  0.81680  Biso   1.000  H
  H276     1.0000 0.84530  0.13520  0.31680  Biso   1.000  H
  H277     1.0000 0.34530  0.63520  0.68320  Biso   1.000  H
  H278     1.0000 0.36480  0.84530  0.18320  Biso   1.000  H
  H279     1.0000 0.13520  0.65470  0.18320  Biso   1.000  H
  H280     1.0000 0.15470  0.86480  0.68320  Biso   1.000  H
  C421     1.0000 0.54540  0.86550  0.07650  Biso   1.000  C
  C422     1.0000 0.13450  0.04540  0.57650  Biso   1.000  C
  C423     1.0000 0.36550  0.45460  0.57650  Biso   1.000  C
  C424     1.0000 0.95460  0.63450  0.07650  Biso   1.000  C
  C425     1.0000 0.45460  0.13450  0.92350  Biso   1.000  C
  C426     1.0000 0.86550  0.95460  0.42350  Biso   1.000  C
  C427     1.0000 0.63450  0.54540  0.42350  Biso   1.000  C
  C428     1.0000 0.04540  0.36550  0.92350  Biso   1.000  C
  H281     1.0000 0.57930  0.89220  0.08610  Biso   1.000  H
  H282     1.0000 0.10780  0.07930  0.58610  Biso   1.000  H
  H283     1.0000 0.39220  0.42070  0.58610  Biso   1.000  H
  H284     1.0000 0.92070  0.60780  0.08610  Biso   1.000  H
  H285     1.0000 0.42070  0.10780  0.91390  Biso   1.000  H
  H286     1.0000 0.89220  0.92070  0.41390  Biso   1.000  H
  H287     1.0000 0.60780  0.57930  0.41390  Biso   1.000  H
  H288     1.0000 0.07930  0.39220  0.91390  Biso   1.000  H
  C429     1.0000 0.44730  0.15530  0.13720  Biso   1.000  C
  C430     1.0000 0.84470  0.94730  0.63720  Biso   1.000  C
  C431     1.0000 0.65530  0.55270  0.63720  Biso   1.000  C
  C432     1.0000 0.05270  0.34470  0.13720  Biso   1.000  C
  C433     1.0000 0.55270  0.84470  0.86280  Biso   1.000  C
  C434     1.0000 0.15530  0.05270  0.36280  Biso   1.000  C
  C435     1.0000 0.34470  0.44730  0.36280  Biso   1.000  C
  C436     1.0000 0.94730  0.65530  0.86280  Biso   1.000  C
  H289     1.0000 0.40310  0.15980  0.13450  Biso   1.000  H
  H290     1.0000 0.84020  0.90310  0.63450  Biso   1.000  H
  H291     1.0000 0.65980  0.59690  0.63450  Biso   1.000  H
  H292     1.0000 0.09690  0.34020  0.13450  Biso   1.000  H
  H293     1.0000 0.59690  0.84020  0.86550  Biso   1.000  H
  H294     1.0000 0.15980  0.09690  0.36550  Biso   1.000  H
  H295     1.0000 0.34020  0.40310  0.36550  Biso   1.000  H
  H296     1.0000 0.90310  0.65980  0.86550  Biso   1.000  H
  C437     1.0000 0.79220  0.56560  0.98470  Biso   1.000  C
  C438     1.0000 0.43440  0.29220  0.48470  Biso   1.000  C
  C439     1.0000 0.06560  0.20780  0.48470  Biso   1.000  C
  C440     1.0000 0.70780  0.93440  0.98470  Biso   1.000  C
  C441     1.0000 0.20780  0.43440  0.01530  Biso   1.000  C
  C442     1.0000 0.56560  0.70780  0.51530  Biso   1.000  C
  C443     1.0000 0.93440  0.79220  0.51530  Biso   1.000  C
  C444     1.0000 0.29220  0.06560  0.01530  Biso   1.000  C
  H297     1.0000 0.76440  0.59840  0.97500  Biso   1.000  H
  H298     1.0000 0.40160  0.26440  0.47500  Biso   1.000  H
  H299     1.0000 0.09840  0.23560  0.47500  Biso   1.000  H
  H300     1.0000 0.73560  0.90160  0.97500  Biso   1.000  H
  H301     1.0000 0.23560  0.40160  0.02500  Biso   1.000  H
  H302     1.0000 0.59840  0.73560  0.52500  Biso   1.000  H
  H303     1.0000 0.90160  0.76440  0.52500  Biso   1.000  H
  H304     1.0000 0.26440  0.09840  0.02500  Biso   1.000  H
  C445     1.0000 0.87760  0.47360  0.01470  Biso   1.000  C
  C446     1.0000 0.52640  0.37760  0.51470  Biso   1.000  C
  C447     1.0000 0.97360  0.12240  0.51470  Biso   1.000  C
  C448     1.0000 0.62240  0.02640  0.01470  Biso   1.000  C
  C449     1.0000 0.12240  0.52640  0.98530  Biso   1.000  C
  C450     1.0000 0.47360  0.62240  0.48530  Biso   1.000  C
  C451     1.0000 0.02640  0.87760  0.48530  Biso   1.000  C
  C452     1.0000 0.37760  0.97360  0.98530  Biso   1.000  C
  H305     1.0000 0.90620  0.44160  0.02480  Biso   1.000  H
  H306     1.0000 0.55840  0.40620  0.52480  Biso   1.000  H
  H307     1.0000 0.94160  0.09380  0.52480  Biso   1.000  H
  H308     1.0000 0.59380  0.05840  0.02480  Biso   1.000  H
  H309     1.0000 0.09380  0.55840  0.97520  Biso   1.000  H
  H310     1.0000 0.44160  0.59380  0.47520  Biso   1.000  H
  H311     1.0000 0.05840  0.90620  0.47520  Biso   1.000  H
  H312     1.0000 0.40620  0.94160  0.97520  Biso   1.000  H
  C453     1.0000 0.78700  0.32560  0.26320  Biso   1.000  C
  C454     1.0000 0.67440  0.28700  0.76320  Biso   1.000  C
  C455     1.0000 0.82560  0.21300  0.76320  Biso   1.000  C
  C456     1.0000 0.71300  0.17440  0.26320  Biso   1.000  C
  C457     1.0000 0.21300  0.67440  0.73680  Biso   1.000  C
  C458     1.0000 0.32560  0.71300  0.23680  Biso   1.000  C
  C459     1.0000 0.17440  0.78700  0.23680  Biso   1.000  C
  C460     1.0000 0.28700  0.82560  0.73680  Biso   1.000  C
  H313     1.0000 0.82910  0.31520  0.27190  Biso   1.000  H
  H314     1.0000 0.68480  0.32910  0.77190  Biso   1.000  H
  H315     1.0000 0.81520  0.17090  0.77190  Biso   1.000  H
  H316     1.0000 0.67090  0.18480  0.27190  Biso   1.000  H
  H317     1.0000 0.17090  0.68480  0.72810  Biso   1.000  H
  H318     1.0000 0.31520  0.67090  0.22810  Biso   1.000  H
  H319     1.0000 0.18480  0.82910  0.22810  Biso   1.000  H
  H320     1.0000 0.32910  0.81520  0.72810  Biso   1.000  H
  C461     1.0000 0.74590  0.33960  0.30210  Biso   1.000  C
  C462     1.0000 0.66040  0.24590  0.80210  Biso   1.000  C
  C463     1.0000 0.83960  0.25410  0.80210  Biso   1.000  C
  C464     1.0000 0.75410  0.16040  0.30210  Biso   1.000  C
  C465     1.0000 0.25410  0.66040  0.69790  Biso   1.000  C
  C466     1.0000 0.33960  0.75410  0.19790  Biso   1.000  C
  C467     1.0000 0.16040  0.74590  0.19790  Biso   1.000  C
  C468     1.0000 0.24590  0.83960  0.69790  Biso   1.000  C
  H321     1.0000 0.75910  0.33830  0.33760  Biso   1.000  H
  H322     1.0000 0.66170  0.25910  0.83760  Biso   1.000  H
  H323     1.0000 0.83830  0.24090  0.83760  Biso   1.000  H
  H324     1.0000 0.74090  0.16170  0.33760  Biso   1.000  H
  H325     1.0000 0.24090  0.66170  0.66240  Biso   1.000  H
  H326     1.0000 0.33830  0.74090  0.16240  Biso   1.000  H
  H327     1.0000 0.16170  0.75910  0.16240  Biso   1.000  H
  H328     1.0000 0.25910  0.83830  0.66240  Biso   1.000  H
  C469     1.0000 0.85770  0.56800  0.97050  Biso   1.000  C
  C470     1.0000 0.43200  0.35770  0.47050  Biso   1.000  C
  C471     1.0000 0.06800  0.14230  0.47050  Biso   1.000  C
  C472     1.0000 0.64230  0.93200  0.97050  Biso   1.000  C
  C473     1.0000 0.14230  0.43200  0.02950  Biso   1.000  C
  C474     1.0000 0.56800  0.64230  0.52950  Biso   1.000  C
  C475     1.0000 0.93200  0.85770  0.52950  Biso   1.000  C
  C476     1.0000 0.35770  0.06800  0.02950  Biso   1.000  C
  H329     1.0000 0.87200  0.60140  0.94900  Biso   1.000  H
  H330     1.0000 0.39860  0.37200  0.44900  Biso   1.000  H
  H331     1.0000 0.10140  0.12800  0.44900  Biso   1.000  H
  H332     1.0000 0.62800  0.89860  0.94900  Biso   1.000  H
  H333     1.0000 0.12800  0.39860  0.05100  Biso   1.000  H
  H334     1.0000 0.60140  0.62800  0.55100  Biso   1.000  H
  H335     1.0000 0.89860  0.87200  0.55100  Biso   1.000  H
  H336     1.0000 0.37200  0.10140  0.05100  Biso   1.000  H
  O1       1.0000 0.57490  0.68310  0.01010  Biso   1.000  O
  O2       1.0000 0.31690  0.07490  0.51010  Biso   1.000  O
  O3       1.0000 0.18310  0.42510  0.51010  Biso   1.000  O
  O4       1.0000 0.92510  0.81690  0.01010  Biso   1.000  O
  O5       1.0000 0.42510  0.31690  0.98990  Biso   1.000  O
  O6       1.0000 0.68310  0.92510  0.48990  Biso   1.000  O
  O7       1.0000 0.81690  0.57490  0.48990  Biso   1.000  O
  O8       1.0000 0.07490  0.18310  0.98990  Biso   1.000  O
  O9       1.0000 0.47330  0.65780  0.02370  Biso   1.000  O
  O10      1.0000 0.34220  0.97330  0.52370  Biso   1.000  O
  O11      1.0000 0.15780  0.52670  0.52370  Biso   1.000  O
  O12      1.0000 0.02670  0.84220  0.02370  Biso   1.000  O
  O13      1.0000 0.52670  0.34220  0.97630  Biso   1.000  O
  O14      1.0000 0.65780  0.02670  0.47630  Biso   1.000  O
  O15      1.0000 0.84220  0.47330  0.47630  Biso   1.000  O
  O16      1.0000 0.97330  0.15780  0.97630  Biso   1.000  O
  O17      1.0000 0.50540  0.60430  0.92850  Biso   1.000  O
  O18      1.0000 0.39570  0.00540  0.42850  Biso   1.000  O
  O19      1.0000 0.10430  0.49460  0.42850  Biso   1.000  O
  O20      1.0000 0.99460  0.89570  0.92850  Biso   1.000  O
  O21      1.0000 0.49460  0.39570  0.07150  Biso   1.000  O
  O22      1.0000 0.60430  0.99460  0.57150  Biso   1.000  O
  O23      1.0000 0.89570  0.50540  0.57150  Biso   1.000  O
  O24      1.0000 0.00540  0.10430  0.07150  Biso   1.000  O
  O25      1.0000 0.60790  0.57710  0.92630  Biso   1.000  O
  O26      1.0000 0.42290  0.10790  0.42630  Biso   1.000  O
  O27      1.0000 0.07710  0.39210  0.42630  Biso   1.000  O
  O28      1.0000 0.89210  0.92290  0.92630  Biso   1.000  O
  O29      1.0000 0.39210  0.42290  0.07370  Biso   1.000  O
  O30      1.0000 0.57710  0.89210  0.57370  Biso   1.000  O
  O31      1.0000 0.92290  0.60790  0.57370  Biso   1.000  O
  O32      1.0000 0.10790  0.07710  0.07370  Biso   1.000  O
  O33      1.0000 0.66570  0.55440  0.02760  Biso   1.000  O
  O34      1.0000 0.44560  0.16570  0.52760  Biso   1.000  O
  O35      1.0000 0.05440  0.33430  0.52760  Biso   1.000  O
  O36      1.0000 0.83430  0.94560  0.02760  Biso   1.000  O
  O37      1.0000 0.33430  0.44560  0.97240  Biso   1.000  O
  O38      1.0000 0.55440  0.83430  0.47240  Biso   1.000  O
  O39      1.0000 0.94560  0.66570  0.47240  Biso   1.000  O
  O40      1.0000 0.16570  0.05440  0.97240  Biso   1.000  O
  O41      1.0000 0.68180  0.45000  0.03320  Biso   1.000  O
  O42      1.0000 0.55000  0.18180  0.53320  Biso   1.000  O
  O43      1.0000 0.95000  0.31820  0.53320  Biso   1.000  O
  O44      1.0000 0.81820  0.05000  0.03320  Biso   1.000  O
  O45      1.0000 0.31820  0.55000  0.96680  Biso   1.000  O
  O46      1.0000 0.45000  0.81820  0.46680  Biso   1.000  O
  O47      1.0000 0.05000  0.68180  0.46680  Biso   1.000  O
  O48      1.0000 0.18180  0.95000  0.96680  Biso   1.000  O
  O49      1.0000 0.56270  0.60720  0.10150  Biso   1.000  O
  O50      1.0000 0.39280  0.06270  0.60150  Biso   1.000  O
  O51      1.0000 0.10720  0.43730  0.60150  Biso   1.000  O
  O52      1.0000 0.93730  0.89280  0.10150  Biso   1.000  O
  O53      1.0000 0.43730  0.39280  0.89850  Biso   1.000  O
  O54      1.0000 0.60720  0.93730  0.39850  Biso   1.000  O
  O55      1.0000 0.89280  0.56270  0.39850  Biso   1.000  O
  O56      1.0000 0.06270  0.10720  0.89850  Biso   1.000  O
  O57      1.0000 0.56260  0.49980  0.09330  Biso   1.000  O
  O58      1.0000 0.50020  0.06260  0.59330  Biso   1.000  O
  O59      1.0000 0.99980  0.43740  0.59330  Biso   1.000  O
  O60      1.0000 0.93740  0.00020  0.09330  Biso   1.000  O
  O61      1.0000 0.43740  0.50020  0.90670  Biso   1.000  O
  O62      1.0000 0.49980  0.93740  0.40670  Biso   1.000  O
  O63      1.0000 0.00020  0.56260  0.40670  Biso   1.000  O
  O64      1.0000 0.06260  0.99980  0.90670  Biso   1.000  O
  O65      1.0000 0.63680  0.38110  0.12940  Biso   1.000  O
  O66      1.0000 0.61890  0.13680  0.62940  Biso   1.000  O
  O67      1.0000 0.88110  0.36320  0.62940  Biso   1.000  O
  O68      1.0000 0.86320  0.11890  0.12940  Biso   1.000  O
  O69      1.0000 0.36320  0.61890  0.87060  Biso   1.000  O
  O70      1.0000 0.38110  0.86320  0.37060  Biso   1.000  O
  O71      1.0000 0.11890  0.63680  0.37060  Biso   1.000  O
  O72      1.0000 0.13680  0.88110  0.87060  Biso   1.000  O
  O73      1.0000 0.72090  0.32360  0.10420  Biso   1.000  O
  O74      1.0000 0.67640  0.22090  0.60420  Biso   1.000  O
  O75      1.0000 0.82360  0.27910  0.60420  Biso   1.000  O
  O76      1.0000 0.77910  0.17640  0.10420  Biso   1.000  O
  O77      1.0000 0.27910  0.67640  0.89580  Biso   1.000  O
  O78      1.0000 0.32360  0.77910  0.39580  Biso   1.000  O
  O79      1.0000 0.17640  0.72090  0.39580  Biso   1.000  O
  O80      1.0000 0.22090  0.82360  0.89580  Biso   1.000  O
  O81      1.0000 0.57630  0.28190  0.06940  Biso   1.000  O
  O82      1.0000 0.71810  0.07630  0.56940  Biso   1.000  O
  O83      1.0000 0.78190  0.42370  0.56940  Biso   1.000  O
  O84      1.0000 0.92370  0.21810  0.06940  Biso   1.000  O
  O85      1.0000 0.42370  0.71810  0.93060  Biso   1.000  O
  O86      1.0000 0.28190  0.92370  0.43060  Biso   1.000  O
  O87      1.0000 0.21810  0.57630  0.43060  Biso   1.000  O
  O88      1.0000 0.07630  0.78190  0.93060  Biso   1.000  O
  O89      1.0000 0.65330  0.20790  0.06840  Biso   1.000  O
  O90      1.0000 0.79210  0.15330  0.56840  Biso   1.000  O
  O91      1.0000 0.70790  0.34670  0.56840  Biso   1.000  O
  O92      1.0000 0.84670  0.29210  0.06840  Biso   1.000  O
  O93      1.0000 0.34670  0.79210  0.93160  Biso   1.000  O
  O94      1.0000 0.20790  0.84670  0.43160  Biso   1.000  O
  O95      1.0000 0.29210  0.65330  0.43160  Biso   1.000  O
  O96      1.0000 0.15330  0.70790  0.93160  Biso   1.000  O
  O97      1.0000 0.67100  0.32310  0.99360  Biso   1.000  O
  O98      1.0000 0.67690  0.17100  0.49360  Biso   1.000  O
  O99      1.0000 0.82310  0.32900  0.49360  Biso   1.000  O
  O100     1.0000 0.82900  0.17690  0.99360  Biso   1.000  O
  O101     1.0000 0.32900  0.67690  0.00640  Biso   1.000  O
  O102     1.0000 0.32310  0.82900  0.50640  Biso   1.000  O
  O103     1.0000 0.17690  0.67100  0.50640  Biso   1.000  O
  O104     1.0000 0.17100  0.82310  0.00640  Biso   1.000  O
  O105     1.0000 0.77220  0.31920  0.97050  Biso   1.000  O
  O106     1.0000 0.68080  0.27220  0.47050  Biso   1.000  O
  O107     1.0000 0.81920  0.22780  0.47050  Biso   1.000  O
  O108     1.0000 0.72780  0.18080  0.97050  Biso   1.000  O
  O109     1.0000 0.22780  0.68080  0.02950  Biso   1.000  O
  O110     1.0000 0.31920  0.72780  0.52950  Biso   1.000  O
  O111     1.0000 0.18080  0.77220  0.52950  Biso   1.000  O
  O112     1.0000 0.27220  0.81920  0.02950  Biso   1.000  O
  O113     1.0000 0.55310  0.46430  0.98580  Biso   1.000  O
  O114     1.0000 0.53570  0.05310  0.48580  Biso   1.000  O
  O115     1.0000 0.96430  0.44690  0.48580  Biso   1.000  O
  O116     1.0000 0.94690  0.03570  0.98580  Biso   1.000  O
  O117     1.0000 0.44690  0.53570  0.01420  Biso   1.000  O
  O118     1.0000 0.46430  0.94690  0.51420  Biso   1.000  O
  O119     1.0000 0.03570  0.55310  0.51420  Biso   1.000  O
  O120     1.0000 0.05310  0.96430  0.01420  Biso   1.000  O
  Y1       1.0000 0.59706  0.38439  0.04312  Biso   1.000  Y
  Y2       1.0000 0.61561  0.09706  0.54312  Biso   1.000  Y
  Y3       1.0000 0.88439  0.40294  0.54312  Biso   1.000  Y
  Y4       1.0000 0.90294  0.11561  0.04312  Biso   1.000  Y
  Y5       1.0000 0.40294  0.61561  0.95688  Biso   1.000  Y
  Y6       1.0000 0.38439  0.90294  0.45688  Biso   1.000  Y
  Y7       1.0000 0.11561  0.59706  0.45688  Biso   1.000  Y
  Y8       1.0000 0.09706  0.88439  0.95688  Biso   1.000  Y
  Y9       1.0000 0.55622  0.56979  0.01391  Biso   1.000  Y
  Y10      1.0000 0.43021  0.05622  0.51391  Biso   1.000  Y
  Y11      1.0000 0.06979  0.44378  0.51391  Biso   1.000  Y
  Y12      1.0000 0.94378  0.93021  0.01391  Biso   1.000  Y
  Y13      1.0000 0.44378  0.43021  0.98609  Biso   1.000  Y
  Y14      1.0000 0.56979  0.94378  0.48609  Biso   1.000  Y
  Y15      1.0000 0.93021  0.55622  0.48609  Biso   1.000  Y
  Y16      1.0000 0.05622  0.06979  0.98609  Biso   1.000  Y
  Y17      1.0000 0.75000  0.25000  0.04351  Biso   1.000  Y
  Y18      1.0000 0.75000  0.25000  0.54351  Biso   1.000  Y
  Y19      1.0000 0.25000  0.75000  0.95649  Biso   1.000  Y
  Y20      1.0000 0.25000  0.75000  0.45649  Biso   1.000  Y
