data_image0
_cell_length_a       15.074
_cell_length_b       41.699
_cell_length_c       41.878
_cell_angle_alpha    90
_cell_angle_beta     90
_cell_angle_gamma    90

_symmetry_space_group_name_H-M    "P 1"
_symmetry_int_tables_number       1

loop_
  _symmetry_equiv_pos_as_xyz
  'x, y, z'

loop_
  _atom_site_label
  _atom_site_occupancy
  _atom_site_fract_x
  _atom_site_fract_y
  _atom_site_fract_z
  _atom_site_thermal_displace_type
  _atom_site_B_iso_or_equiv
  _atom_site_type_symbol
  Cu1      1.0000 0.25128  0.50017  0.46461  Biso   1.000  Cu
  Cu2      1.0000 0.99872  0.74983  0.46461  Biso   1.000  Cu
  Cu3      1.0000 0.25128  0.74983  0.78539  Biso   1.000  Cu
  Cu4      1.0000 0.99872  0.50017  0.78539  Biso   1.000  Cu
  Cu5      1.0000 0.25128  0.00017  0.96461  Biso   1.000  Cu
  Cu6      1.0000 0.99872  0.24983  0.96461  Biso   1.000  Cu
  Cu7      1.0000 0.25128  0.24983  0.28539  Biso   1.000  Cu
  Cu8      1.0000 0.99872  0.00017  0.28539  Biso   1.000  Cu
  Cu9      1.0000 0.75128  0.50017  0.96461  Biso   1.000  Cu
  Cu10     1.0000 0.49872  0.74983  0.96461  Biso   1.000  Cu
  Cu11     1.0000 0.75128  0.74983  0.28539  Biso   1.000  Cu
  Cu12     1.0000 0.49872  0.50017  0.28539  Biso   1.000  Cu
  Cu13     1.0000 0.75128  0.00017  0.46461  Biso   1.000  Cu
  Cu14     1.0000 0.49872  0.24983  0.46461  Biso   1.000  Cu
  Cu15     1.0000 0.75128  0.24983  0.78539  Biso   1.000  Cu
  Cu16     1.0000 0.49872  0.00017  0.78539  Biso   1.000  Cu
  Cu17     1.0000 0.74872  0.49983  0.53539  Biso   1.000  Cu
  Cu18     1.0000 0.50128  0.75017  0.53539  Biso   1.000  Cu
  Cu19     1.0000 0.74872  0.75017  0.71461  Biso   1.000  Cu
  Cu20     1.0000 0.50128  0.49983  0.71461  Biso   1.000  Cu
  Cu21     1.0000 0.74872  0.99983  0.03539  Biso   1.000  Cu
  Cu22     1.0000 0.50128  0.25017  0.03539  Biso   1.000  Cu
  Cu23     1.0000 0.74872  0.25017  0.21461  Biso   1.000  Cu
  Cu24     1.0000 0.50128  0.99983  0.21461  Biso   1.000  Cu
  Cu25     1.0000 0.24872  0.49983  0.03539  Biso   1.000  Cu
  Cu26     1.0000 0.00128  0.75017  0.03539  Biso   1.000  Cu
  Cu27     1.0000 0.24872  0.75017  0.21461  Biso   1.000  Cu
  Cu28     1.0000 0.00128  0.49983  0.21461  Biso   1.000  Cu
  Cu29     1.0000 0.24872  0.99983  0.53539  Biso   1.000  Cu
  Cu30     1.0000 0.00128  0.25017  0.53539  Biso   1.000  Cu
  Cu31     1.0000 0.24872  0.25017  0.71461  Biso   1.000  Cu
  Cu32     1.0000 0.00128  0.99983  0.71461  Biso   1.000  Cu
  N1       1.0000 0.21010  0.54644  0.46802  Biso   1.000  N
  N2       1.0000 0.03990  0.70356  0.46802  Biso   1.000  N
  N3       1.0000 0.21010  0.70356  0.78198  Biso   1.000  N
  N4       1.0000 0.03990  0.54644  0.78198  Biso   1.000  N
  N5       1.0000 0.21010  0.04644  0.96802  Biso   1.000  N
  N6       1.0000 0.03990  0.20356  0.96802  Biso   1.000  N
  N7       1.0000 0.21010  0.20356  0.28198  Biso   1.000  N
  N8       1.0000 0.03990  0.04644  0.28198  Biso   1.000  N
  N9       1.0000 0.71010  0.54644  0.96802  Biso   1.000  N
  N10      1.0000 0.53990  0.70356  0.96802  Biso   1.000  N
  N11      1.0000 0.71010  0.70356  0.28198  Biso   1.000  N
  N12      1.0000 0.53990  0.54644  0.28198  Biso   1.000  N
  N13      1.0000 0.71010  0.04644  0.46802  Biso   1.000  N
  N14      1.0000 0.53990  0.20356  0.46802  Biso   1.000  N
  N15      1.0000 0.71010  0.20356  0.78198  Biso   1.000  N
  N16      1.0000 0.53990  0.04644  0.78198  Biso   1.000  N
  N17      1.0000 0.78990  0.45356  0.53198  Biso   1.000  N
  N18      1.0000 0.46010  0.79644  0.53198  Biso   1.000  N
  N19      1.0000 0.78990  0.79644  0.71802  Biso   1.000  N
  N20      1.0000 0.46010  0.45356  0.71802  Biso   1.000  N
  N21      1.0000 0.78990  0.95356  0.03198  Biso   1.000  N
  N22      1.0000 0.46010  0.29644  0.03198  Biso   1.000  N
  N23      1.0000 0.78990  0.29644  0.21802  Biso   1.000  N
  N24      1.0000 0.46010  0.95356  0.21802  Biso   1.000  N
  N25      1.0000 0.28990  0.45356  0.03198  Biso   1.000  N
  N26      1.0000 0.96010  0.79644  0.03198  Biso   1.000  N
  N27      1.0000 0.28990  0.79644  0.21802  Biso   1.000  N
  N28      1.0000 0.96010  0.45356  0.21802  Biso   1.000  N
  N29      1.0000 0.28990  0.95356  0.53198  Biso   1.000  N
  N30      1.0000 0.96010  0.29644  0.53198  Biso   1.000  N
  N31      1.0000 0.28990  0.29644  0.71802  Biso   1.000  N
  N32      1.0000 0.96010  0.95356  0.71802  Biso   1.000  N
  N33      1.0000 0.29600  0.50120  0.51044  Biso   1.000  N
  N34      1.0000 0.95400  0.74880  0.51044  Biso   1.000  N
  N35      1.0000 0.29600  0.74880  0.73956  Biso   1.000  N
  N36      1.0000 0.95400  0.50120  0.73956  Biso   1.000  N
  N37      1.0000 0.29600  0.00120  0.01044  Biso   1.000  N
  N38      1.0000 0.95400  0.24880  0.01044  Biso   1.000  N
  N39      1.0000 0.29600  0.24880  0.23956  Biso   1.000  N
  N40      1.0000 0.95400  0.00120  0.23956  Biso   1.000  N
  N41      1.0000 0.79600  0.50120  0.01044  Biso   1.000  N
  N42      1.0000 0.45400  0.74880  0.01044  Biso   1.000  N
  N43      1.0000 0.79600  0.74880  0.23956  Biso   1.000  N
  N44      1.0000 0.45400  0.50120  0.23956  Biso   1.000  N
  N45      1.0000 0.79600  0.00120  0.51044  Biso   1.000  N
  N46      1.0000 0.45400  0.24880  0.51044  Biso   1.000  N
  N47      1.0000 0.79600  0.24880  0.73956  Biso   1.000  N
  N48      1.0000 0.45400  0.00120  0.73956  Biso   1.000  N
  N49      1.0000 0.70400  0.49880  0.48956  Biso   1.000  N
  N50      1.0000 0.54600  0.75120  0.48956  Biso   1.000  N
  N51      1.0000 0.70400  0.75120  0.76044  Biso   1.000  N
  N52      1.0000 0.54600  0.49880  0.76044  Biso   1.000  N
  N53      1.0000 0.70400  0.99880  0.98956  Biso   1.000  N
  N54      1.0000 0.54600  0.25120  0.98956  Biso   1.000  N
  N55      1.0000 0.70400  0.25120  0.26044  Biso   1.000  N
  N56      1.0000 0.54600  0.99880  0.26044  Biso   1.000  N
  N57      1.0000 0.20400  0.49880  0.98956  Biso   1.000  N
  N58      1.0000 0.04600  0.75120  0.98956  Biso   1.000  N
  N59      1.0000 0.20400  0.75120  0.26044  Biso   1.000  N
  N60      1.0000 0.04600  0.49880  0.26044  Biso   1.000  N
  N61      1.0000 0.20400  0.99880  0.48956  Biso   1.000  N
  N62      1.0000 0.04600  0.25120  0.48956  Biso   1.000  N
  N63      1.0000 0.20400  0.25120  0.76044  Biso   1.000  N
  N64      1.0000 0.04600  0.99880  0.76044  Biso   1.000  N
  N65      1.0000 0.29800  0.45480  0.46032  Biso   1.000  N
  N66      1.0000 0.95200  0.79520  0.46032  Biso   1.000  N
  N67      1.0000 0.29800  0.79520  0.78968  Biso   1.000  N
  N68      1.0000 0.95200  0.45480  0.78968  Biso   1.000  N
  N69      1.0000 0.29800  0.95480  0.96032  Biso   1.000  N
  N70      1.0000 0.95200  0.29520  0.96032  Biso   1.000  N
  N71      1.0000 0.29800  0.29520  0.28968  Biso   1.000  N
  N72      1.0000 0.95200  0.95480  0.28968  Biso   1.000  N
  N73      1.0000 0.79800  0.45480  0.96032  Biso   1.000  N
  N74      1.0000 0.45200  0.79520  0.96032  Biso   1.000  N
  N75      1.0000 0.79800  0.79520  0.28968  Biso   1.000  N
  N76      1.0000 0.45200  0.45480  0.28968  Biso   1.000  N
  N77      1.0000 0.79800  0.95480  0.46032  Biso   1.000  N
  N78      1.0000 0.45200  0.29520  0.46032  Biso   1.000  N
  N79      1.0000 0.79800  0.29520  0.78968  Biso   1.000  N
  N80      1.0000 0.45200  0.95480  0.78968  Biso   1.000  N
  N81      1.0000 0.70200  0.54520  0.53968  Biso   1.000  N
  N82      1.0000 0.54800  0.70480  0.53968  Biso   1.000  N
  N83      1.0000 0.70200  0.70480  0.71032  Biso   1.000  N
  N84      1.0000 0.54800  0.54520  0.71032  Biso   1.000  N
  N85      1.0000 0.70200  0.04520  0.03968  Biso   1.000  N
  N86      1.0000 0.54800  0.20480  0.03968  Biso   1.000  N
  N87      1.0000 0.70200  0.20480  0.21032  Biso   1.000  N
  N88      1.0000 0.54800  0.04520  0.21032  Biso   1.000  N
  N89      1.0000 0.20200  0.54520  0.03968  Biso   1.000  N
  N90      1.0000 0.04800  0.70480  0.03968  Biso   1.000  N
  N91      1.0000 0.20200  0.70480  0.21032  Biso   1.000  N
  N92      1.0000 0.04800  0.54520  0.21032  Biso   1.000  N
  N93      1.0000 0.20200  0.04520  0.53968  Biso   1.000  N
  N94      1.0000 0.04800  0.20480  0.53968  Biso   1.000  N
  N95      1.0000 0.20200  0.20480  0.71032  Biso   1.000  N
  N96      1.0000 0.04800  0.04520  0.71032  Biso   1.000  N
  C1       1.0000 0.35620  0.50186  0.57339  Biso   1.000  C
  C2       1.0000 0.89380  0.74814  0.57339  Biso   1.000  C
  C3       1.0000 0.35620  0.74814  0.67661  Biso   1.000  C
  C4       1.0000 0.89380  0.50186  0.67661  Biso   1.000  C
  C5       1.0000 0.35620  0.00186  0.07339  Biso   1.000  C
  C6       1.0000 0.89380  0.24814  0.07339  Biso   1.000  C
  C7       1.0000 0.35620  0.24814  0.17661  Biso   1.000  C
  C8       1.0000 0.89380  0.00186  0.17661  Biso   1.000  C
  C9       1.0000 0.85620  0.50186  0.07339  Biso   1.000  C
  C10      1.0000 0.39380  0.74814  0.07339  Biso   1.000  C
  C11      1.0000 0.85620  0.74814  0.17661  Biso   1.000  C
  C12      1.0000 0.39380  0.50186  0.17661  Biso   1.000  C
  C13      1.0000 0.85620  0.00186  0.57339  Biso   1.000  C
  C14      1.0000 0.39380  0.24814  0.57339  Biso   1.000  C
  C15      1.0000 0.85620  0.24814  0.67661  Biso   1.000  C
  C16      1.0000 0.39380  0.00186  0.67661  Biso   1.000  C
  C17      1.0000 0.64380  0.49814  0.42661  Biso   1.000  C
  C18      1.0000 0.60620  0.75186  0.42661  Biso   1.000  C
  C19      1.0000 0.64380  0.75186  0.82339  Biso   1.000  C
  C20      1.0000 0.60620  0.49814  0.82339  Biso   1.000  C
  C21      1.0000 0.64380  0.99814  0.92661  Biso   1.000  C
  C22      1.0000 0.60620  0.25186  0.92661  Biso   1.000  C
  C23      1.0000 0.64380  0.25186  0.32339  Biso   1.000  C
  C24      1.0000 0.60620  0.99814  0.32339  Biso   1.000  C
  C25      1.0000 0.14380  0.49814  0.92661  Biso   1.000  C
  C26      1.0000 0.10620  0.75186  0.92661  Biso   1.000  C
  C27      1.0000 0.14380  0.75186  0.32339  Biso   1.000  C
  C28      1.0000 0.10620  0.49814  0.32339  Biso   1.000  C
  C29      1.0000 0.14380  0.99814  0.42661  Biso   1.000  C
  C30      1.0000 0.10620  0.25186  0.42661  Biso   1.000  C
  C31      1.0000 0.14380  0.25186  0.82339  Biso   1.000  C
  C32      1.0000 0.10620  0.99814  0.82339  Biso   1.000  C
  C33      1.0000 0.22770  0.56731  0.44486  Biso   1.000  C
  C34      1.0000 0.02230  0.68269  0.44486  Biso   1.000  C
  C35      1.0000 0.22770  0.68269  0.80514  Biso   1.000  C
  C36      1.0000 0.02230  0.56731  0.80514  Biso   1.000  C
  C37      1.0000 0.22770  0.06731  0.94486  Biso   1.000  C
  C38      1.0000 0.02230  0.18269  0.94486  Biso   1.000  C
  C39      1.0000 0.22770  0.18269  0.30514  Biso   1.000  C
  C40      1.0000 0.02230  0.06731  0.30514  Biso   1.000  C
  C41      1.0000 0.72770  0.56731  0.94486  Biso   1.000  C
  C42      1.0000 0.52230  0.68269  0.94486  Biso   1.000  C
  C43      1.0000 0.72770  0.68269  0.30514  Biso   1.000  C
  C44      1.0000 0.52230  0.56731  0.30514  Biso   1.000  C
  C45      1.0000 0.72770  0.06731  0.44486  Biso   1.000  C
  C46      1.0000 0.52230  0.18269  0.44486  Biso   1.000  C
  C47      1.0000 0.72770  0.18269  0.80514  Biso   1.000  C
  C48      1.0000 0.52230  0.06731  0.80514  Biso   1.000  C
  C49      1.0000 0.77230  0.43269  0.55514  Biso   1.000  C
  C50      1.0000 0.47770  0.81731  0.55514  Biso   1.000  C
  C51      1.0000 0.77230  0.81731  0.69486  Biso   1.000  C
  C52      1.0000 0.47770  0.43269  0.69486  Biso   1.000  C
  C53      1.0000 0.77230  0.93269  0.05514  Biso   1.000  C
  C54      1.0000 0.47770  0.31731  0.05514  Biso   1.000  C
  C55      1.0000 0.77230  0.31731  0.19486  Biso   1.000  C
  C56      1.0000 0.47770  0.93269  0.19486  Biso   1.000  C
  C57      1.0000 0.27230  0.43269  0.05514  Biso   1.000  C
  C58      1.0000 0.97770  0.81731  0.05514  Biso   1.000  C
  C59      1.0000 0.27230  0.81731  0.19486  Biso   1.000  C
  C60      1.0000 0.97770  0.43269  0.19486  Biso   1.000  C
  C61      1.0000 0.27230  0.93269  0.55514  Biso   1.000  C
  C62      1.0000 0.97770  0.31731  0.55514  Biso   1.000  C
  C63      1.0000 0.27230  0.31731  0.69486  Biso   1.000  C
  C64      1.0000 0.97770  0.93269  0.69486  Biso   1.000  C
  H1       1.0000 0.26360  0.56070  0.42800  Biso   1.000  H
  H2       1.0000 0.98640  0.68930  0.42800  Biso   1.000  H
  H3       1.0000 0.26360  0.68930  0.82200  Biso   1.000  H
  H4       1.0000 0.98640  0.56070  0.82200  Biso   1.000  H
  H5       1.0000 0.26360  0.06070  0.92800  Biso   1.000  H
  H6       1.0000 0.98640  0.18930  0.92800  Biso   1.000  H
  H7       1.0000 0.26360  0.18930  0.32200  Biso   1.000  H
  H8       1.0000 0.98640  0.06070  0.32200  Biso   1.000  H
  H9       1.0000 0.76360  0.56070  0.92800  Biso   1.000  H
  H10      1.0000 0.48640  0.68930  0.92800  Biso   1.000  H
  H11      1.0000 0.76360  0.68930  0.32200  Biso   1.000  H
  H12      1.0000 0.48640  0.56070  0.32200  Biso   1.000  H
  H13      1.0000 0.76360  0.06070  0.42800  Biso   1.000  H
  H14      1.0000 0.48640  0.18930  0.42800  Biso   1.000  H
  H15      1.0000 0.76360  0.18930  0.82200  Biso   1.000  H
  H16      1.0000 0.48640  0.06070  0.82200  Biso   1.000  H
  H17      1.0000 0.73640  0.43930  0.57200  Biso   1.000  H
  H18      1.0000 0.51360  0.81070  0.57200  Biso   1.000  H
  H19      1.0000 0.73640  0.81070  0.67800  Biso   1.000  H
  H20      1.0000 0.51360  0.43930  0.67800  Biso   1.000  H
  H21      1.0000 0.73640  0.93930  0.07200  Biso   1.000  H
  H22      1.0000 0.51360  0.31070  0.07200  Biso   1.000  H
  H23      1.0000 0.73640  0.31070  0.17800  Biso   1.000  H
  H24      1.0000 0.51360  0.93930  0.17800  Biso   1.000  H
  H25      1.0000 0.23640  0.43930  0.07200  Biso   1.000  H
  H26      1.0000 0.01360  0.81070  0.07200  Biso   1.000  H
  H27      1.0000 0.23640  0.81070  0.17800  Biso   1.000  H
  H28      1.0000 0.01360  0.43930  0.17800  Biso   1.000  H
  H29      1.0000 0.23640  0.93930  0.57200  Biso   1.000  H
  H30      1.0000 0.01360  0.31070  0.57200  Biso   1.000  H
  H31      1.0000 0.23640  0.31070  0.67800  Biso   1.000  H
  H32      1.0000 0.01360  0.93930  0.67800  Biso   1.000  H
  C65      1.0000 0.38930  0.50216  0.60688  Biso   1.000  C
  C66      1.0000 0.86070  0.74784  0.60688  Biso   1.000  C
  C67      1.0000 0.38930  0.74784  0.64312  Biso   1.000  C
  C68      1.0000 0.86070  0.50216  0.64312  Biso   1.000  C
  C69      1.0000 0.38930  0.00216  0.10688  Biso   1.000  C
  C70      1.0000 0.86070  0.24784  0.10688  Biso   1.000  C
  C71      1.0000 0.38930  0.24784  0.14312  Biso   1.000  C
  C72      1.0000 0.86070  0.00216  0.14312  Biso   1.000  C
  C73      1.0000 0.88930  0.50216  0.10688  Biso   1.000  C
  C74      1.0000 0.36070  0.74784  0.10688  Biso   1.000  C
  C75      1.0000 0.88930  0.74784  0.14312  Biso   1.000  C
  C76      1.0000 0.36070  0.50216  0.14312  Biso   1.000  C
  C77      1.0000 0.88930  0.00216  0.60688  Biso   1.000  C
  C78      1.0000 0.36070  0.24784  0.60688  Biso   1.000  C
  C79      1.0000 0.88930  0.24784  0.64312  Biso   1.000  C
  C80      1.0000 0.36070  0.00216  0.64312  Biso   1.000  C
  C81      1.0000 0.61070  0.49784  0.39312  Biso   1.000  C
  C82      1.0000 0.63930  0.75216  0.39312  Biso   1.000  C
  C83      1.0000 0.61070  0.75216  0.85688  Biso   1.000  C
  C84      1.0000 0.63930  0.49784  0.85688  Biso   1.000  C
  C85      1.0000 0.61070  0.99784  0.89312  Biso   1.000  C
  C86      1.0000 0.63930  0.25216  0.89312  Biso   1.000  C
  C87      1.0000 0.61070  0.25216  0.35688  Biso   1.000  C
  C88      1.0000 0.63930  0.99784  0.35688  Biso   1.000  C
  C89      1.0000 0.11070  0.49784  0.89312  Biso   1.000  C
  C90      1.0000 0.13930  0.75216  0.89312  Biso   1.000  C
  C91      1.0000 0.11070  0.75216  0.35688  Biso   1.000  C
  C92      1.0000 0.13930  0.49784  0.35688  Biso   1.000  C
  C93      1.0000 0.11070  0.99784  0.39312  Biso   1.000  C
  C94      1.0000 0.13930  0.25216  0.39312  Biso   1.000  C
  C95      1.0000 0.11070  0.25216  0.85688  Biso   1.000  C
  C96      1.0000 0.13930  0.99784  0.85688  Biso   1.000  C
  C97      1.0000 0.16180  0.55678  0.49279  Biso   1.000  C
  C98      1.0000 0.08820  0.69322  0.49279  Biso   1.000  C
  C99      1.0000 0.16180  0.69322  0.75721  Biso   1.000  C
  C100     1.0000 0.08820  0.55678  0.75721  Biso   1.000  C
  C101     1.0000 0.16180  0.05678  0.99279  Biso   1.000  C
  C102     1.0000 0.08820  0.19322  0.99279  Biso   1.000  C
  C103     1.0000 0.16180  0.19322  0.25721  Biso   1.000  C
  C104     1.0000 0.08820  0.05678  0.25721  Biso   1.000  C
  C105     1.0000 0.66180  0.55678  0.99279  Biso   1.000  C
  C106     1.0000 0.58820  0.69322  0.99279  Biso   1.000  C
  C107     1.0000 0.66180  0.69322  0.25721  Biso   1.000  C
  C108     1.0000 0.58820  0.55678  0.25721  Biso   1.000  C
  C109     1.0000 0.66180  0.05678  0.49279  Biso   1.000  C
  C110     1.0000 0.58820  0.19322  0.49279  Biso   1.000  C
  C111     1.0000 0.66180  0.19322  0.75721  Biso   1.000  C
  C112     1.0000 0.58820  0.05678  0.75721  Biso   1.000  C
  C113     1.0000 0.83820  0.44322  0.50721  Biso   1.000  C
  C114     1.0000 0.41180  0.80678  0.50721  Biso   1.000  C
  C115     1.0000 0.83820  0.80678  0.74279  Biso   1.000  C
  C116     1.0000 0.41180  0.44322  0.74279  Biso   1.000  C
  C117     1.0000 0.83820  0.94322  0.00721  Biso   1.000  C
  C118     1.0000 0.41180  0.30678  0.00721  Biso   1.000  C
  C119     1.0000 0.83820  0.30678  0.24279  Biso   1.000  C
  C120     1.0000 0.41180  0.94322  0.24279  Biso   1.000  C
  C121     1.0000 0.33820  0.44322  0.00721  Biso   1.000  C
  C122     1.0000 0.91180  0.80678  0.00721  Biso   1.000  C
  C123     1.0000 0.33820  0.80678  0.24279  Biso   1.000  C
  C124     1.0000 0.91180  0.44322  0.24279  Biso   1.000  C
  C125     1.0000 0.33820  0.94322  0.50721  Biso   1.000  C
  C126     1.0000 0.91180  0.30678  0.50721  Biso   1.000  C
  C127     1.0000 0.33820  0.30678  0.74279  Biso   1.000  C
  C128     1.0000 0.91180  0.94322  0.74279  Biso   1.000  C
  H33      1.0000 0.15070  0.54260  0.50950  Biso   1.000  H
  H34      1.0000 0.09930  0.70740  0.50950  Biso   1.000  H
  H35      1.0000 0.15070  0.70740  0.74050  Biso   1.000  H
  H36      1.0000 0.09930  0.54260  0.74050  Biso   1.000  H
  H37      1.0000 0.15070  0.04260  0.00950  Biso   1.000  H
  H38      1.0000 0.09930  0.20740  0.00950  Biso   1.000  H
  H39      1.0000 0.15070  0.20740  0.24050  Biso   1.000  H
  H40      1.0000 0.09930  0.04260  0.24050  Biso   1.000  H
  H41      1.0000 0.65070  0.54260  0.00950  Biso   1.000  H
  H42      1.0000 0.59930  0.70740  0.00950  Biso   1.000  H
  H43      1.0000 0.65070  0.70740  0.24050  Biso   1.000  H
  H44      1.0000 0.59930  0.54260  0.24050  Biso   1.000  H
  H45      1.0000 0.65070  0.04260  0.50950  Biso   1.000  H
  H46      1.0000 0.59930  0.20740  0.50950  Biso   1.000  H
  H47      1.0000 0.65070  0.20740  0.74050  Biso   1.000  H
  H48      1.0000 0.59930  0.04260  0.74050  Biso   1.000  H
  H49      1.0000 0.84930  0.45740  0.49050  Biso   1.000  H
  H50      1.0000 0.40070  0.79260  0.49050  Biso   1.000  H
  H51      1.0000 0.84930  0.79260  0.75950  Biso   1.000  H
  H52      1.0000 0.40070  0.45740  0.75950  Biso   1.000  H
  H53      1.0000 0.84930  0.95740  0.99050  Biso   1.000  H
  H54      1.0000 0.40070  0.29260  0.99050  Biso   1.000  H
  H55      1.0000 0.84930  0.29260  0.25950  Biso   1.000  H
  H56      1.0000 0.40070  0.95740  0.25950  Biso   1.000  H
  H57      1.0000 0.34930  0.45740  0.99050  Biso   1.000  H
  H58      1.0000 0.90070  0.79260  0.99050  Biso   1.000  H
  H59      1.0000 0.34930  0.79260  0.25950  Biso   1.000  H
  H60      1.0000 0.90070  0.45740  0.25950  Biso   1.000  H
  H61      1.0000 0.34930  0.95740  0.49050  Biso   1.000  H
  H62      1.0000 0.90070  0.29260  0.49050  Biso   1.000  H
  H63      1.0000 0.34930  0.29260  0.75950  Biso   1.000  H
  H64      1.0000 0.90070  0.95740  0.75950  Biso   1.000  H
  C129     1.0000 0.38140  0.44784  0.46793  Biso   1.000  C
  C130     1.0000 0.86860  0.80216  0.46793  Biso   1.000  C
  C131     1.0000 0.38140  0.80216  0.78207  Biso   1.000  C
  C132     1.0000 0.86860  0.44784  0.78207  Biso   1.000  C
  C133     1.0000 0.38140  0.94784  0.96793  Biso   1.000  C
  C134     1.0000 0.86860  0.30216  0.96793  Biso   1.000  C
  C135     1.0000 0.38140  0.30216  0.28207  Biso   1.000  C
  C136     1.0000 0.86860  0.94784  0.28207  Biso   1.000  C
  C137     1.0000 0.88140  0.44784  0.96793  Biso   1.000  C
  C138     1.0000 0.36860  0.80216  0.96793  Biso   1.000  C
  C139     1.0000 0.88140  0.80216  0.28207  Biso   1.000  C
  C140     1.0000 0.36860  0.44784  0.28207  Biso   1.000  C
  C141     1.0000 0.88140  0.94784  0.46793  Biso   1.000  C
  C142     1.0000 0.36860  0.30216  0.46793  Biso   1.000  C
  C143     1.0000 0.88140  0.30216  0.78207  Biso   1.000  C
  C144     1.0000 0.36860  0.94784  0.78207  Biso   1.000  C
  C145     1.0000 0.61860  0.55216  0.53207  Biso   1.000  C
  C146     1.0000 0.63140  0.69784  0.53207  Biso   1.000  C
  C147     1.0000 0.61860  0.69784  0.71793  Biso   1.000  C
  C148     1.0000 0.63140  0.55216  0.71793  Biso   1.000  C
  C149     1.0000 0.61860  0.05216  0.03207  Biso   1.000  C
  C150     1.0000 0.63140  0.19784  0.03207  Biso   1.000  C
  C151     1.0000 0.61860  0.19784  0.21793  Biso   1.000  C
  C152     1.0000 0.63140  0.05216  0.21793  Biso   1.000  C
  C153     1.0000 0.11860  0.55216  0.03207  Biso   1.000  C
  C154     1.0000 0.13140  0.69784  0.03207  Biso   1.000  C
  C155     1.0000 0.11860  0.69784  0.21793  Biso   1.000  C
  C156     1.0000 0.13140  0.55216  0.21793  Biso   1.000  C
  C157     1.0000 0.11860  0.05216  0.53207  Biso   1.000  C
  C158     1.0000 0.13140  0.19784  0.53207  Biso   1.000  C
  C159     1.0000 0.11860  0.19784  0.71793  Biso   1.000  C
  C160     1.0000 0.13140  0.05216  0.71793  Biso   1.000  C
  H65      1.0000 0.41900  0.46440  0.47410  Biso   1.000  H
  H66      1.0000 0.83100  0.78560  0.47410  Biso   1.000  H
  H67      1.0000 0.41900  0.78560  0.77590  Biso   1.000  H
  H68      1.0000 0.83100  0.46440  0.77590  Biso   1.000  H
  H69      1.0000 0.41900  0.96440  0.97410  Biso   1.000  H
  H70      1.0000 0.83100  0.28560  0.97410  Biso   1.000  H
  H71      1.0000 0.41900  0.28560  0.27590  Biso   1.000  H
  H72      1.0000 0.83100  0.96440  0.27590  Biso   1.000  H
  H73      1.0000 0.91900  0.46440  0.97410  Biso   1.000  H
  H74      1.0000 0.33100  0.78560  0.97410  Biso   1.000  H
  H75      1.0000 0.91900  0.78560  0.27590  Biso   1.000  H
  H76      1.0000 0.33100  0.46440  0.27590  Biso   1.000  H
  H77      1.0000 0.91900  0.96440  0.47410  Biso   1.000  H
  H78      1.0000 0.33100  0.28560  0.47410  Biso   1.000  H
  H79      1.0000 0.91900  0.28560  0.77590  Biso   1.000  H
  H80      1.0000 0.33100  0.96440  0.77590  Biso   1.000  H
  H81      1.0000 0.58100  0.53560  0.52590  Biso   1.000  H
  H82      1.0000 0.66900  0.71440  0.52590  Biso   1.000  H
  H83      1.0000 0.58100  0.71440  0.72410  Biso   1.000  H
  H84      1.0000 0.66900  0.53560  0.72410  Biso   1.000  H
  H85      1.0000 0.58100  0.03560  0.02590  Biso   1.000  H
  H86      1.0000 0.66900  0.21440  0.02590  Biso   1.000  H
  H87      1.0000 0.58100  0.21440  0.22410  Biso   1.000  H
  H88      1.0000 0.66900  0.03560  0.22410  Biso   1.000  H
  H89      1.0000 0.08100  0.53560  0.02590  Biso   1.000  H
  H90      1.0000 0.16900  0.71440  0.02590  Biso   1.000  H
  H91      1.0000 0.08100  0.71440  0.22410  Biso   1.000  H
  H92      1.0000 0.16900  0.53560  0.22410  Biso   1.000  H
  H93      1.0000 0.08100  0.03560  0.52590  Biso   1.000  H
  H94      1.0000 0.16900  0.21440  0.52590  Biso   1.000  H
  H95      1.0000 0.08100  0.21440  0.72410  Biso   1.000  H
  H96      1.0000 0.16900  0.03560  0.72410  Biso   1.000  H
  C161     1.0000 0.34390  0.52564  0.52145  Biso   1.000  C
  C162     1.0000 0.90610  0.72436  0.52145  Biso   1.000  C
  C163     1.0000 0.34390  0.72436  0.72855  Biso   1.000  C
  C164     1.0000 0.90610  0.52564  0.72855  Biso   1.000  C
  C165     1.0000 0.34390  0.02564  0.02145  Biso   1.000  C
  C166     1.0000 0.90610  0.22436  0.02145  Biso   1.000  C
  C167     1.0000 0.34390  0.22436  0.22855  Biso   1.000  C
  C168     1.0000 0.90610  0.02564  0.22855  Biso   1.000  C
  C169     1.0000 0.84390  0.52564  0.02145  Biso   1.000  C
  C170     1.0000 0.40610  0.72436  0.02145  Biso   1.000  C
  C171     1.0000 0.84390  0.72436  0.22855  Biso   1.000  C
  C172     1.0000 0.40610  0.52564  0.22855  Biso   1.000  C
  C173     1.0000 0.84390  0.02564  0.52145  Biso   1.000  C
  C174     1.0000 0.40610  0.22436  0.52145  Biso   1.000  C
  C175     1.0000 0.84390  0.22436  0.72855  Biso   1.000  C
  C176     1.0000 0.40610  0.02564  0.72855  Biso   1.000  C
  C177     1.0000 0.65610  0.47436  0.47855  Biso   1.000  C
  C178     1.0000 0.59390  0.77564  0.47855  Biso   1.000  C
  C179     1.0000 0.65610  0.77564  0.77145  Biso   1.000  C
  C180     1.0000 0.59390  0.47436  0.77145  Biso   1.000  C
  C181     1.0000 0.65610  0.97436  0.97855  Biso   1.000  C
  C182     1.0000 0.59390  0.27564  0.97855  Biso   1.000  C
  C183     1.0000 0.65610  0.27564  0.27145  Biso   1.000  C
  C184     1.0000 0.59390  0.97436  0.27145  Biso   1.000  C
  C185     1.0000 0.15610  0.47436  0.97855  Biso   1.000  C
  C186     1.0000 0.09390  0.77564  0.97855  Biso   1.000  C
  C187     1.0000 0.15610  0.77564  0.27145  Biso   1.000  C
  C188     1.0000 0.09390  0.47436  0.27145  Biso   1.000  C
  C189     1.0000 0.15610  0.97436  0.47855  Biso   1.000  C
  C190     1.0000 0.09390  0.27564  0.47855  Biso   1.000  C
  C191     1.0000 0.15610  0.27564  0.77145  Biso   1.000  C
  C192     1.0000 0.09390  0.97436  0.77145  Biso   1.000  C
  H97      1.0000 0.35650  0.54270  0.50790  Biso   1.000  H
  H98      1.0000 0.89350  0.70730  0.50790  Biso   1.000  H
  H99      1.0000 0.35650  0.70730  0.74210  Biso   1.000  H
  H100     1.0000 0.89350  0.54270  0.74210  Biso   1.000  H
  H101     1.0000 0.35650  0.04270  0.00790  Biso   1.000  H
  H102     1.0000 0.89350  0.20730  0.00790  Biso   1.000  H
  H103     1.0000 0.35650  0.20730  0.24210  Biso   1.000  H
  H104     1.0000 0.89350  0.04270  0.24210  Biso   1.000  H
  H105     1.0000 0.85650  0.54270  0.00790  Biso   1.000  H
  H106     1.0000 0.39350  0.70730  0.00790  Biso   1.000  H
  H107     1.0000 0.85650  0.70730  0.24210  Biso   1.000  H
  H108     1.0000 0.39350  0.54270  0.24210  Biso   1.000  H
  H109     1.0000 0.85650  0.04270  0.50790  Biso   1.000  H
  H110     1.0000 0.39350  0.20730  0.50790  Biso   1.000  H
  H111     1.0000 0.85650  0.20730  0.74210  Biso   1.000  H
  H112     1.0000 0.39350  0.04270  0.74210  Biso   1.000  H
  H113     1.0000 0.64350  0.45730  0.49210  Biso   1.000  H
  H114     1.0000 0.60650  0.79270  0.49210  Biso   1.000  H
  H115     1.0000 0.64350  0.79270  0.75790  Biso   1.000  H
  H116     1.0000 0.60650  0.45730  0.75790  Biso   1.000  H
  H117     1.0000 0.64350  0.95730  0.99210  Biso   1.000  H
  H118     1.0000 0.60650  0.29270  0.99210  Biso   1.000  H
  H119     1.0000 0.64350  0.29270  0.25790  Biso   1.000  H
  H120     1.0000 0.60650  0.95730  0.25790  Biso   1.000  H
  H121     1.0000 0.14350  0.45730  0.99210  Biso   1.000  H
  H122     1.0000 0.10650  0.79270  0.99210  Biso   1.000  H
  H123     1.0000 0.14350  0.79270  0.25790  Biso   1.000  H
  H124     1.0000 0.10650  0.45730  0.25790  Biso   1.000  H
  H125     1.0000 0.14350  0.95730  0.49210  Biso   1.000  H
  H126     1.0000 0.10650  0.29270  0.49210  Biso   1.000  H
  H127     1.0000 0.14350  0.29270  0.75790  Biso   1.000  H
  H128     1.0000 0.10650  0.95730  0.75790  Biso   1.000  H
  C193     1.0000 0.35920  0.39178  0.45822  Biso   1.000  C
  C194     1.0000 0.89080  0.85822  0.45822  Biso   1.000  C
  C195     1.0000 0.35920  0.85822  0.79178  Biso   1.000  C
  C196     1.0000 0.89080  0.39178  0.79178  Biso   1.000  C
  C197     1.0000 0.35920  0.89178  0.95822  Biso   1.000  C
  C198     1.0000 0.89080  0.35822  0.95822  Biso   1.000  C
  C199     1.0000 0.35920  0.35822  0.29178  Biso   1.000  C
  C200     1.0000 0.89080  0.89178  0.29178  Biso   1.000  C
  C201     1.0000 0.85920  0.39178  0.95822  Biso   1.000  C
  C202     1.0000 0.39080  0.85822  0.95822  Biso   1.000  C
  C203     1.0000 0.85920  0.85822  0.29178  Biso   1.000  C
  C204     1.0000 0.39080  0.39178  0.29178  Biso   1.000  C
  C205     1.0000 0.85920  0.89178  0.45822  Biso   1.000  C
  C206     1.0000 0.39080  0.35822  0.45822  Biso   1.000  C
  C207     1.0000 0.85920  0.35822  0.79178  Biso   1.000  C
  C208     1.0000 0.39080  0.89178  0.79178  Biso   1.000  C
  C209     1.0000 0.64080  0.60822  0.54178  Biso   1.000  C
  C210     1.0000 0.60920  0.64178  0.54178  Biso   1.000  C
  C211     1.0000 0.64080  0.64178  0.70822  Biso   1.000  C
  C212     1.0000 0.60920  0.60822  0.70822  Biso   1.000  C
  C213     1.0000 0.64080  0.10822  0.04178  Biso   1.000  C
  C214     1.0000 0.60920  0.14178  0.04178  Biso   1.000  C
  C215     1.0000 0.64080  0.14178  0.20822  Biso   1.000  C
  C216     1.0000 0.60920  0.10822  0.20822  Biso   1.000  C
  C217     1.0000 0.14080  0.60822  0.04178  Biso   1.000  C
  C218     1.0000 0.10920  0.64178  0.04178  Biso   1.000  C
  C219     1.0000 0.14080  0.64178  0.20822  Biso   1.000  C
  C220     1.0000 0.10920  0.60822  0.20822  Biso   1.000  C
  C221     1.0000 0.14080  0.10822  0.54178  Biso   1.000  C
  C222     1.0000 0.10920  0.14178  0.54178  Biso   1.000  C
  C223     1.0000 0.14080  0.14178  0.70822  Biso   1.000  C
  C224     1.0000 0.10920  0.10822  0.70822  Biso   1.000  C
  C225     1.0000 0.41480  0.41669  0.46708  Biso   1.000  C
  C226     1.0000 0.83520  0.83331  0.46708  Biso   1.000  C
  C227     1.0000 0.41480  0.83331  0.78292  Biso   1.000  C
  C228     1.0000 0.83520  0.41669  0.78292  Biso   1.000  C
  C229     1.0000 0.41480  0.91669  0.96708  Biso   1.000  C
  C230     1.0000 0.83520  0.33331  0.96708  Biso   1.000  C
  C231     1.0000 0.41480  0.33331  0.28292  Biso   1.000  C
  C232     1.0000 0.83520  0.91669  0.28292  Biso   1.000  C
  C233     1.0000 0.91480  0.41669  0.96708  Biso   1.000  C
  C234     1.0000 0.33520  0.83331  0.96708  Biso   1.000  C
  C235     1.0000 0.91480  0.83331  0.28292  Biso   1.000  C
  C236     1.0000 0.33520  0.41669  0.28292  Biso   1.000  C
  C237     1.0000 0.91480  0.91669  0.46708  Biso   1.000  C
  C238     1.0000 0.33520  0.33331  0.46708  Biso   1.000  C
  C239     1.0000 0.91480  0.33331  0.78292  Biso   1.000  C
  C240     1.0000 0.33520  0.91669  0.78292  Biso   1.000  C
  C241     1.0000 0.58520  0.58331  0.53292  Biso   1.000  C
  C242     1.0000 0.66480  0.66669  0.53292  Biso   1.000  C
  C243     1.0000 0.58520  0.66669  0.71708  Biso   1.000  C
  C244     1.0000 0.66480  0.58331  0.71708  Biso   1.000  C
  C245     1.0000 0.58520  0.08331  0.03292  Biso   1.000  C
  C246     1.0000 0.66480  0.16669  0.03292  Biso   1.000  C
  C247     1.0000 0.58520  0.16669  0.21708  Biso   1.000  C
  C248     1.0000 0.66480  0.08331  0.21708  Biso   1.000  C
  C249     1.0000 0.08520  0.58331  0.03292  Biso   1.000  C
  C250     1.0000 0.16480  0.66669  0.03292  Biso   1.000  C
  C251     1.0000 0.08520  0.66669  0.21708  Biso   1.000  C
  C252     1.0000 0.16480  0.58331  0.21708  Biso   1.000  C
  C253     1.0000 0.08520  0.08331  0.53292  Biso   1.000  C
  C254     1.0000 0.16480  0.16669  0.53292  Biso   1.000  C
  C255     1.0000 0.08520  0.16669  0.71708  Biso   1.000  C
  C256     1.0000 0.16480  0.08331  0.71708  Biso   1.000  C
  H129     1.0000 0.47370  0.41270  0.47240  Biso   1.000  H
  H130     1.0000 0.77630  0.83730  0.47240  Biso   1.000  H
  H131     1.0000 0.47370  0.83730  0.77760  Biso   1.000  H
  H132     1.0000 0.77630  0.41270  0.77760  Biso   1.000  H
  H133     1.0000 0.47370  0.91270  0.97240  Biso   1.000  H
  H134     1.0000 0.77630  0.33730  0.97240  Biso   1.000  H
  H135     1.0000 0.47370  0.33730  0.27760  Biso   1.000  H
  H136     1.0000 0.77630  0.91270  0.27760  Biso   1.000  H
  H137     1.0000 0.97370  0.41270  0.97240  Biso   1.000  H
  H138     1.0000 0.27630  0.83730  0.97240  Biso   1.000  H
  H139     1.0000 0.97370  0.83730  0.27760  Biso   1.000  H
  H140     1.0000 0.27630  0.41270  0.27760  Biso   1.000  H
  H141     1.0000 0.97370  0.91270  0.47240  Biso   1.000  H
  H142     1.0000 0.27630  0.33730  0.47240  Biso   1.000  H
  H143     1.0000 0.97370  0.33730  0.77760  Biso   1.000  H
  H144     1.0000 0.27630  0.91270  0.77760  Biso   1.000  H
  H145     1.0000 0.52630  0.58730  0.52760  Biso   1.000  H
  H146     1.0000 0.72370  0.66270  0.52760  Biso   1.000  H
  H147     1.0000 0.52630  0.66270  0.72240  Biso   1.000  H
  H148     1.0000 0.72370  0.58730  0.72240  Biso   1.000  H
  H149     1.0000 0.52630  0.08730  0.02760  Biso   1.000  H
  H150     1.0000 0.72370  0.16270  0.02760  Biso   1.000  H
  H151     1.0000 0.52630  0.16270  0.22240  Biso   1.000  H
  H152     1.0000 0.72370  0.08730  0.22240  Biso   1.000  H
  H153     1.0000 0.02630  0.58730  0.02760  Biso   1.000  H
  H154     1.0000 0.22370  0.66270  0.02760  Biso   1.000  H
  H155     1.0000 0.02630  0.66270  0.22240  Biso   1.000  H
  H156     1.0000 0.22370  0.58730  0.22240  Biso   1.000  H
  H157     1.0000 0.02630  0.08730  0.52760  Biso   1.000  H
  H158     1.0000 0.22370  0.16270  0.52760  Biso   1.000  H
  H159     1.0000 0.02630  0.16270  0.72240  Biso   1.000  H
  H160     1.0000 0.22370  0.08730  0.72240  Biso   1.000  H
  C257     1.0000 0.14380  0.60858  0.46994  Biso   1.000  C
  C258     1.0000 0.10620  0.64142  0.46994  Biso   1.000  C
  C259     1.0000 0.14380  0.64142  0.78006  Biso   1.000  C
  C260     1.0000 0.10620  0.60858  0.78006  Biso   1.000  C
  C261     1.0000 0.14380  0.10858  0.96994  Biso   1.000  C
  C262     1.0000 0.10620  0.14142  0.96994  Biso   1.000  C
  C263     1.0000 0.14380  0.14142  0.28006  Biso   1.000  C
  C264     1.0000 0.10620  0.10858  0.28006  Biso   1.000  C
  C265     1.0000 0.64380  0.60858  0.96994  Biso   1.000  C
  C266     1.0000 0.60620  0.64142  0.96994  Biso   1.000  C
  C267     1.0000 0.64380  0.64142  0.28006  Biso   1.000  C
  C268     1.0000 0.60620  0.60858  0.28006  Biso   1.000  C
  C269     1.0000 0.64380  0.10858  0.46994  Biso   1.000  C
  C270     1.0000 0.60620  0.14142  0.46994  Biso   1.000  C
  C271     1.0000 0.64380  0.14142  0.78006  Biso   1.000  C
  C272     1.0000 0.60620  0.10858  0.78006  Biso   1.000  C
  C273     1.0000 0.85620  0.39142  0.53006  Biso   1.000  C
  C274     1.0000 0.39380  0.85858  0.53006  Biso   1.000  C
  C275     1.0000 0.85620  0.85858  0.71994  Biso   1.000  C
  C276     1.0000 0.39380  0.39142  0.71994  Biso   1.000  C
  C277     1.0000 0.85620  0.89142  0.03006  Biso   1.000  C
  C278     1.0000 0.39380  0.35858  0.03006  Biso   1.000  C
  C279     1.0000 0.85620  0.35858  0.21994  Biso   1.000  C
  C280     1.0000 0.39380  0.89142  0.21994  Biso   1.000  C
  C281     1.0000 0.35620  0.39142  0.03006  Biso   1.000  C
  C282     1.0000 0.89380  0.85858  0.03006  Biso   1.000  C
  C283     1.0000 0.35620  0.85858  0.21994  Biso   1.000  C
  C284     1.0000 0.89380  0.39142  0.21994  Biso   1.000  C
  C285     1.0000 0.35620  0.89142  0.53006  Biso   1.000  C
  C286     1.0000 0.89380  0.35858  0.53006  Biso   1.000  C
  C287     1.0000 0.35620  0.35858  0.71994  Biso   1.000  C
  C288     1.0000 0.89380  0.89142  0.71994  Biso   1.000  C
  C289     1.0000 0.37240  0.49023  0.66202  Biso   1.000  C
  C290     1.0000 0.87760  0.75977  0.66202  Biso   1.000  C
  C291     1.0000 0.37240  0.75977  0.58798  Biso   1.000  C
  C292     1.0000 0.87760  0.49023  0.58798  Biso   1.000  C
  C293     1.0000 0.37240  0.99023  0.16202  Biso   1.000  C
  C294     1.0000 0.87760  0.25977  0.16202  Biso   1.000  C
  C295     1.0000 0.37240  0.25977  0.08798  Biso   1.000  C
  C296     1.0000 0.87760  0.99023  0.08798  Biso   1.000  C
  C297     1.0000 0.87240  0.49023  0.16202  Biso   1.000  C
  C298     1.0000 0.37760  0.75977  0.16202  Biso   1.000  C
  C299     1.0000 0.87240  0.75977  0.08798  Biso   1.000  C
  C300     1.0000 0.37760  0.49023  0.08798  Biso   1.000  C
  C301     1.0000 0.87240  0.99023  0.66202  Biso   1.000  C
  C302     1.0000 0.37760  0.25977  0.66202  Biso   1.000  C
  C303     1.0000 0.87240  0.25977  0.58798  Biso   1.000  C
  C304     1.0000 0.37760  0.99023  0.58798  Biso   1.000  C
  C305     1.0000 0.62760  0.50977  0.33798  Biso   1.000  C
  C306     1.0000 0.62240  0.74023  0.33798  Biso   1.000  C
  C307     1.0000 0.62760  0.74023  0.91202  Biso   1.000  C
  C308     1.0000 0.62240  0.50977  0.91202  Biso   1.000  C
  C309     1.0000 0.62760  0.00977  0.83798  Biso   1.000  C
  C310     1.0000 0.62240  0.24023  0.83798  Biso   1.000  C
  C311     1.0000 0.62760  0.24023  0.41202  Biso   1.000  C
  C312     1.0000 0.62240  0.00977  0.41202  Biso   1.000  C
  C313     1.0000 0.12760  0.50977  0.83798  Biso   1.000  C
  C314     1.0000 0.12240  0.74023  0.83798  Biso   1.000  C
  C315     1.0000 0.12760  0.74023  0.41202  Biso   1.000  C
  C316     1.0000 0.12240  0.50977  0.41202  Biso   1.000  C
  C317     1.0000 0.12760  0.00977  0.33798  Biso   1.000  C
  C318     1.0000 0.12240  0.24023  0.33798  Biso   1.000  C
  C319     1.0000 0.12760  0.24023  0.91202  Biso   1.000  C
  C320     1.0000 0.12240  0.00977  0.91202  Biso   1.000  C
  H161     1.0000 0.33720  0.48220  0.67840  Biso   1.000  H
  H162     1.0000 0.91280  0.76780  0.67840  Biso   1.000  H
  H163     1.0000 0.33720  0.76780  0.57160  Biso   1.000  H
  H164     1.0000 0.91280  0.48220  0.57160  Biso   1.000  H
  H165     1.0000 0.33720  0.98220  0.17840  Biso   1.000  H
  H166     1.0000 0.91280  0.26780  0.17840  Biso   1.000  H
  H167     1.0000 0.33720  0.26780  0.07160  Biso   1.000  H
  H168     1.0000 0.91280  0.98220  0.07160  Biso   1.000  H
  H169     1.0000 0.83720  0.48220  0.17840  Biso   1.000  H
  H170     1.0000 0.41280  0.76780  0.17840  Biso   1.000  H
  H171     1.0000 0.83720  0.76780  0.07160  Biso   1.000  H
  H172     1.0000 0.41280  0.48220  0.07160  Biso   1.000  H
  H173     1.0000 0.83720  0.98220  0.67840  Biso   1.000  H
  H174     1.0000 0.41280  0.26780  0.67840  Biso   1.000  H
  H175     1.0000 0.83720  0.26780  0.57160  Biso   1.000  H
  H176     1.0000 0.41280  0.98220  0.57160  Biso   1.000  H
  H177     1.0000 0.66280  0.51780  0.32160  Biso   1.000  H
  H178     1.0000 0.58720  0.73220  0.32160  Biso   1.000  H
  H179     1.0000 0.66280  0.73220  0.92840  Biso   1.000  H
  H180     1.0000 0.58720  0.51780  0.92840  Biso   1.000  H
  H181     1.0000 0.66280  0.01780  0.82160  Biso   1.000  H
  H182     1.0000 0.58720  0.23220  0.82160  Biso   1.000  H
  H183     1.0000 0.66280  0.23220  0.42840  Biso   1.000  H
  H184     1.0000 0.58720  0.01780  0.42840  Biso   1.000  H
  H185     1.0000 0.16280  0.51780  0.82160  Biso   1.000  H
  H186     1.0000 0.08720  0.73220  0.82160  Biso   1.000  H
  H187     1.0000 0.16280  0.73220  0.42840  Biso   1.000  H
  H188     1.0000 0.08720  0.51780  0.42840  Biso   1.000  H
  H189     1.0000 0.16280  0.01780  0.32160  Biso   1.000  H
  H190     1.0000 0.08720  0.23220  0.32160  Biso   1.000  H
  H191     1.0000 0.16280  0.23220  0.92840  Biso   1.000  H
  H192     1.0000 0.08720  0.01780  0.92840  Biso   1.000  H
  C321     1.0000 0.50160  0.51365  0.64533  Biso   1.000  C
  C322     1.0000 0.74840  0.73635  0.64533  Biso   1.000  C
  C323     1.0000 0.50160  0.73635  0.60467  Biso   1.000  C
  C324     1.0000 0.74840  0.51365  0.60467  Biso   1.000  C
  C325     1.0000 0.50160  0.01365  0.14533  Biso   1.000  C
  C326     1.0000 0.74840  0.23635  0.14533  Biso   1.000  C
  C327     1.0000 0.50160  0.23635  0.10467  Biso   1.000  C
  C328     1.0000 0.74840  0.01365  0.10467  Biso   1.000  C
  C329     1.0000 0.00160  0.51365  0.14533  Biso   1.000  C
  C330     1.0000 0.24840  0.73635  0.14533  Biso   1.000  C
  C331     1.0000 0.00160  0.73635  0.10467  Biso   1.000  C
  C332     1.0000 0.24840  0.51365  0.10467  Biso   1.000  C
  C333     1.0000 0.00160  0.01365  0.64533  Biso   1.000  C
  C334     1.0000 0.24840  0.23635  0.64533  Biso   1.000  C
  C335     1.0000 0.00160  0.23635  0.60467  Biso   1.000  C
  C336     1.0000 0.24840  0.01365  0.60467  Biso   1.000  C
  C337     1.0000 0.49840  0.48635  0.35467  Biso   1.000  C
  C338     1.0000 0.75160  0.76365  0.35467  Biso   1.000  C
  C339     1.0000 0.49840  0.76365  0.89533  Biso   1.000  C
  C340     1.0000 0.75160  0.48635  0.89533  Biso   1.000  C
  C341     1.0000 0.49840  0.98635  0.85467  Biso   1.000  C
  C342     1.0000 0.75160  0.26365  0.85467  Biso   1.000  C
  C343     1.0000 0.49840  0.26365  0.39533  Biso   1.000  C
  C344     1.0000 0.75160  0.98635  0.39533  Biso   1.000  C
  C345     1.0000 0.99840  0.48635  0.85467  Biso   1.000  C
  C346     1.0000 0.25160  0.76365  0.85467  Biso   1.000  C
  C347     1.0000 0.99840  0.76365  0.39533  Biso   1.000  C
  C348     1.0000 0.25160  0.48635  0.39533  Biso   1.000  C
  C349     1.0000 0.99840  0.98635  0.35467  Biso   1.000  C
  C350     1.0000 0.25160  0.26365  0.35467  Biso   1.000  C
  C351     1.0000 0.99840  0.26365  0.89533  Biso   1.000  C
  C352     1.0000 0.25160  0.98635  0.89533  Biso   1.000  C
  H193     1.0000 0.55760  0.52180  0.64990  Biso   1.000  H
  H194     1.0000 0.69240  0.72820  0.64990  Biso   1.000  H
  H195     1.0000 0.55760  0.72820  0.60010  Biso   1.000  H
  H196     1.0000 0.69240  0.52180  0.60010  Biso   1.000  H
  H197     1.0000 0.55760  0.02180  0.14990  Biso   1.000  H
  H198     1.0000 0.69240  0.22820  0.14990  Biso   1.000  H
  H199     1.0000 0.55760  0.22820  0.10010  Biso   1.000  H
  H200     1.0000 0.69240  0.02180  0.10010  Biso   1.000  H
  H201     1.0000 0.05760  0.52180  0.14990  Biso   1.000  H
  H202     1.0000 0.19240  0.72820  0.14990  Biso   1.000  H
  H203     1.0000 0.05760  0.72820  0.10010  Biso   1.000  H
  H204     1.0000 0.19240  0.52180  0.10010  Biso   1.000  H
  H205     1.0000 0.05760  0.02180  0.64990  Biso   1.000  H
  H206     1.0000 0.19240  0.22820  0.64990  Biso   1.000  H
  H207     1.0000 0.05760  0.22820  0.60010  Biso   1.000  H
  H208     1.0000 0.19240  0.02180  0.60010  Biso   1.000  H
  H209     1.0000 0.44240  0.47820  0.35010  Biso   1.000  H
  H210     1.0000 0.80760  0.77180  0.35010  Biso   1.000  H
  H211     1.0000 0.44240  0.77180  0.89990  Biso   1.000  H
  H212     1.0000 0.80760  0.47820  0.89990  Biso   1.000  H
  H213     1.0000 0.44240  0.97820  0.85010  Biso   1.000  H
  H214     1.0000 0.80760  0.27180  0.85010  Biso   1.000  H
  H215     1.0000 0.44240  0.27180  0.39990  Biso   1.000  H
  H216     1.0000 0.80760  0.97820  0.39990  Biso   1.000  H
  H217     1.0000 0.94240  0.47820  0.85010  Biso   1.000  H
  H218     1.0000 0.30760  0.77180  0.85010  Biso   1.000  H
  H219     1.0000 0.94240  0.77180  0.39990  Biso   1.000  H
  H220     1.0000 0.30760  0.47820  0.39990  Biso   1.000  H
  H221     1.0000 0.94240  0.97820  0.35010  Biso   1.000  H
  H222     1.0000 0.30760  0.27180  0.35010  Biso   1.000  H
  H223     1.0000 0.94240  0.27180  0.89990  Biso   1.000  H
  H224     1.0000 0.30760  0.97820  0.89990  Biso   1.000  H
  C353     1.0000 0.27270  0.39949  0.44997  Biso   1.000  C
  C354     1.0000 0.97730  0.85051  0.44997  Biso   1.000  C
  C355     1.0000 0.27270  0.85051  0.80003  Biso   1.000  C
  C356     1.0000 0.97730  0.39949  0.80003  Biso   1.000  C
  C357     1.0000 0.27270  0.89949  0.94997  Biso   1.000  C
  C358     1.0000 0.97730  0.35051  0.94997  Biso   1.000  C
  C359     1.0000 0.27270  0.35051  0.30003  Biso   1.000  C
  C360     1.0000 0.97730  0.89949  0.30003  Biso   1.000  C
  C361     1.0000 0.77270  0.39949  0.94997  Biso   1.000  C
  C362     1.0000 0.47730  0.85051  0.94997  Biso   1.000  C
  C363     1.0000 0.77270  0.85051  0.30003  Biso   1.000  C
  C364     1.0000 0.47730  0.39949  0.30003  Biso   1.000  C
  C365     1.0000 0.77270  0.89949  0.44997  Biso   1.000  C
  C366     1.0000 0.47730  0.35051  0.44997  Biso   1.000  C
  C367     1.0000 0.77270  0.35051  0.80003  Biso   1.000  C
  C368     1.0000 0.47730  0.89949  0.80003  Biso   1.000  C
  C369     1.0000 0.72730  0.60051  0.55003  Biso   1.000  C
  C370     1.0000 0.52270  0.64949  0.55003  Biso   1.000  C
  C371     1.0000 0.72730  0.64949  0.69997  Biso   1.000  C
  C372     1.0000 0.52270  0.60051  0.69997  Biso   1.000  C
  C373     1.0000 0.72730  0.10051  0.05003  Biso   1.000  C
  C374     1.0000 0.52270  0.14949  0.05003  Biso   1.000  C
  C375     1.0000 0.72730  0.14949  0.19997  Biso   1.000  C
  C376     1.0000 0.52270  0.10051  0.19997  Biso   1.000  C
  C377     1.0000 0.22730  0.60051  0.05003  Biso   1.000  C
  C378     1.0000 0.02270  0.64949  0.05003  Biso   1.000  C
  C379     1.0000 0.22730  0.64949  0.19997  Biso   1.000  C
  C380     1.0000 0.02270  0.60051  0.19997  Biso   1.000  C
  C381     1.0000 0.22730  0.10051  0.55003  Biso   1.000  C
  C382     1.0000 0.02270  0.14949  0.55003  Biso   1.000  C
  C383     1.0000 0.22730  0.14949  0.69997  Biso   1.000  C
  C384     1.0000 0.02270  0.10051  0.69997  Biso   1.000  C
  H225     1.0000 0.23360  0.38350  0.44350  Biso   1.000  H
  H226     1.0000 0.01640  0.86650  0.44350  Biso   1.000  H
  H227     1.0000 0.23360  0.86650  0.80650  Biso   1.000  H
  H228     1.0000 0.01640  0.38350  0.80650  Biso   1.000  H
  H229     1.0000 0.23360  0.88350  0.94350  Biso   1.000  H
  H230     1.0000 0.01640  0.36650  0.94350  Biso   1.000  H
  H231     1.0000 0.23360  0.36650  0.30650  Biso   1.000  H
  H232     1.0000 0.01640  0.88350  0.30650  Biso   1.000  H
  H233     1.0000 0.73360  0.38350  0.94350  Biso   1.000  H
  H234     1.0000 0.51640  0.86650  0.94350  Biso   1.000  H
  H235     1.0000 0.73360  0.86650  0.30650  Biso   1.000  H
  H236     1.0000 0.51640  0.38350  0.30650  Biso   1.000  H
  H237     1.0000 0.73360  0.88350  0.44350  Biso   1.000  H
  H238     1.0000 0.51640  0.36650  0.44350  Biso   1.000  H
  H239     1.0000 0.73360  0.36650  0.80650  Biso   1.000  H
  H240     1.0000 0.51640  0.88350  0.80650  Biso   1.000  H
  H241     1.0000 0.76640  0.61650  0.55650  Biso   1.000  H
  H242     1.0000 0.48360  0.63350  0.55650  Biso   1.000  H
  H243     1.0000 0.76640  0.63350  0.69350  Biso   1.000  H
  H244     1.0000 0.48360  0.61650  0.69350  Biso   1.000  H
  H245     1.0000 0.76640  0.11650  0.05650  Biso   1.000  H
  H246     1.0000 0.48360  0.13350  0.05650  Biso   1.000  H
  H247     1.0000 0.76640  0.13350  0.19350  Biso   1.000  H
  H248     1.0000 0.48360  0.11650  0.19350  Biso   1.000  H
  H249     1.0000 0.26640  0.61650  0.05650  Biso   1.000  H
  H250     1.0000 0.98360  0.63350  0.05650  Biso   1.000  H
  H251     1.0000 0.26640  0.63350  0.19350  Biso   1.000  H
  H252     1.0000 0.98360  0.61650  0.19350  Biso   1.000  H
  H253     1.0000 0.26640  0.11650  0.55650  Biso   1.000  H
  H254     1.0000 0.98360  0.13350  0.55650  Biso   1.000  H
  H255     1.0000 0.26640  0.13350  0.69350  Biso   1.000  H
  H256     1.0000 0.98360  0.11650  0.69350  Biso   1.000  H
  C385     1.0000 0.27690  0.47755  0.53040  Biso   1.000  C
  C386     1.0000 0.97310  0.77245  0.53040  Biso   1.000  C
  C387     1.0000 0.27690  0.77245  0.71960  Biso   1.000  C
  C388     1.0000 0.97310  0.47755  0.71960  Biso   1.000  C
  C389     1.0000 0.27690  0.97755  0.03040  Biso   1.000  C
  C390     1.0000 0.97310  0.27245  0.03040  Biso   1.000  C
  C391     1.0000 0.27690  0.27245  0.21960  Biso   1.000  C
  C392     1.0000 0.97310  0.97755  0.21960  Biso   1.000  C
  C393     1.0000 0.77690  0.47755  0.03040  Biso   1.000  C
  C394     1.0000 0.47310  0.77245  0.03040  Biso   1.000  C
  C395     1.0000 0.77690  0.77245  0.21960  Biso   1.000  C
  C396     1.0000 0.47310  0.47755  0.21960  Biso   1.000  C
  C397     1.0000 0.77690  0.97755  0.53040  Biso   1.000  C
  C398     1.0000 0.47310  0.27245  0.53040  Biso   1.000  C
  C399     1.0000 0.77690  0.27245  0.71960  Biso   1.000  C
  C400     1.0000 0.47310  0.97755  0.71960  Biso   1.000  C
  C401     1.0000 0.72310  0.52245  0.46960  Biso   1.000  C
  C402     1.0000 0.52690  0.72755  0.46960  Biso   1.000  C
  C403     1.0000 0.72310  0.72755  0.78040  Biso   1.000  C
  C404     1.0000 0.52690  0.52245  0.78040  Biso   1.000  C
  C405     1.0000 0.72310  0.02245  0.96960  Biso   1.000  C
  C406     1.0000 0.52690  0.22755  0.96960  Biso   1.000  C
  C407     1.0000 0.72310  0.22755  0.28040  Biso   1.000  C
  C408     1.0000 0.52690  0.02245  0.28040  Biso   1.000  C
  C409     1.0000 0.22310  0.52245  0.96960  Biso   1.000  C
  C410     1.0000 0.02690  0.72755  0.96960  Biso   1.000  C
  C411     1.0000 0.22310  0.72755  0.28040  Biso   1.000  C
  C412     1.0000 0.02690  0.52245  0.28040  Biso   1.000  C
  C413     1.0000 0.22310  0.02245  0.46960  Biso   1.000  C
  C414     1.0000 0.02690  0.22755  0.46960  Biso   1.000  C
  C415     1.0000 0.22310  0.22755  0.78040  Biso   1.000  C
  C416     1.0000 0.02690  0.02245  0.78040  Biso   1.000  C
  H257     1.0000 0.24250  0.46060  0.52300  Biso   1.000  H
  H258     1.0000 0.00750  0.78940  0.52300  Biso   1.000  H
  H259     1.0000 0.24250  0.78940  0.72700  Biso   1.000  H
  H260     1.0000 0.00750  0.46060  0.72700  Biso   1.000  H
  H261     1.0000 0.24250  0.96060  0.02300  Biso   1.000  H
  H262     1.0000 0.00750  0.28940  0.02300  Biso   1.000  H
  H263     1.0000 0.24250  0.28940  0.22700  Biso   1.000  H
  H264     1.0000 0.00750  0.96060  0.22700  Biso   1.000  H
  H265     1.0000 0.74250  0.46060  0.02300  Biso   1.000  H
  H266     1.0000 0.50750  0.78940  0.02300  Biso   1.000  H
  H267     1.0000 0.74250  0.78940  0.22700  Biso   1.000  H
  H268     1.0000 0.50750  0.46060  0.22700  Biso   1.000  H
  H269     1.0000 0.74250  0.96060  0.52300  Biso   1.000  H
  H270     1.0000 0.50750  0.28940  0.52300  Biso   1.000  H
  H271     1.0000 0.74250  0.28940  0.72700  Biso   1.000  H
  H272     1.0000 0.50750  0.96060  0.72700  Biso   1.000  H
  H273     1.0000 0.75750  0.53940  0.47700  Biso   1.000  H
  H274     1.0000 0.49250  0.71060  0.47700  Biso   1.000  H
  H275     1.0000 0.75750  0.71060  0.77300  Biso   1.000  H
  H276     1.0000 0.49250  0.53940  0.77300  Biso   1.000  H
  H277     1.0000 0.75750  0.03940  0.97700  Biso   1.000  H
  H278     1.0000 0.49250  0.21060  0.97700  Biso   1.000  H
  H279     1.0000 0.75750  0.21060  0.27300  Biso   1.000  H
  H280     1.0000 0.49250  0.03940  0.27300  Biso   1.000  H
  H281     1.0000 0.25750  0.53940  0.97700  Biso   1.000  H
  H282     1.0000 0.99250  0.71060  0.97700  Biso   1.000  H
  H283     1.0000 0.25750  0.71060  0.27300  Biso   1.000  H
  H284     1.0000 0.99250  0.53940  0.27300  Biso   1.000  H
  H285     1.0000 0.25750  0.03940  0.47700  Biso   1.000  H
  H286     1.0000 0.99250  0.21060  0.47700  Biso   1.000  H
  H287     1.0000 0.25750  0.21060  0.77300  Biso   1.000  H
  H288     1.0000 0.99250  0.03940  0.77300  Biso   1.000  H
  C417     1.0000 0.24480  0.43073  0.45128  Biso   1.000  C
  C418     1.0000 0.00520  0.81927  0.45128  Biso   1.000  C
  C419     1.0000 0.24480  0.81927  0.79872  Biso   1.000  C
  C420     1.0000 0.00520  0.43073  0.79872  Biso   1.000  C
  C421     1.0000 0.24480  0.93073  0.95128  Biso   1.000  C
  C422     1.0000 0.00520  0.31927  0.95128  Biso   1.000  C
  C423     1.0000 0.24480  0.31927  0.29872  Biso   1.000  C
  C424     1.0000 0.00520  0.93073  0.29872  Biso   1.000  C
  C425     1.0000 0.74480  0.43073  0.95128  Biso   1.000  C
  C426     1.0000 0.50520  0.81927  0.95128  Biso   1.000  C
  C427     1.0000 0.74480  0.81927  0.29872  Biso   1.000  C
  C428     1.0000 0.50520  0.43073  0.29872  Biso   1.000  C
  C429     1.0000 0.74480  0.93073  0.45128  Biso   1.000  C
  C430     1.0000 0.50520  0.31927  0.45128  Biso   1.000  C
  C431     1.0000 0.74480  0.31927  0.79872  Biso   1.000  C
  C432     1.0000 0.50520  0.93073  0.79872  Biso   1.000  C
  C433     1.0000 0.75520  0.56927  0.54872  Biso   1.000  C
  C434     1.0000 0.49480  0.68073  0.54872  Biso   1.000  C
  C435     1.0000 0.75520  0.68073  0.70128  Biso   1.000  C
  C436     1.0000 0.49480  0.56927  0.70128  Biso   1.000  C
  C437     1.0000 0.75520  0.06927  0.04872  Biso   1.000  C
  C438     1.0000 0.49480  0.18073  0.04872  Biso   1.000  C
  C439     1.0000 0.75520  0.18073  0.20128  Biso   1.000  C
  C440     1.0000 0.49480  0.06927  0.20128  Biso   1.000  C
  C441     1.0000 0.25520  0.56927  0.04872  Biso   1.000  C
  C442     1.0000 0.99480  0.68073  0.04872  Biso   1.000  C
  C443     1.0000 0.25520  0.68073  0.20128  Biso   1.000  C
  C444     1.0000 0.99480  0.56927  0.20128  Biso   1.000  C
  C445     1.0000 0.25520  0.06927  0.54872  Biso   1.000  C
  C446     1.0000 0.99480  0.18073  0.54872  Biso   1.000  C
  C447     1.0000 0.25520  0.18073  0.70128  Biso   1.000  C
  C448     1.0000 0.99480  0.06927  0.70128  Biso   1.000  C
  H289     1.0000 0.18650  0.43540  0.44570  Biso   1.000  H
  H290     1.0000 0.06350  0.81460  0.44570  Biso   1.000  H
  H291     1.0000 0.18650  0.81460  0.80430  Biso   1.000  H
  H292     1.0000 0.06350  0.43540  0.80430  Biso   1.000  H
  H293     1.0000 0.18650  0.93540  0.94570  Biso   1.000  H
  H294     1.0000 0.06350  0.31460  0.94570  Biso   1.000  H
  H295     1.0000 0.18650  0.31460  0.30430  Biso   1.000  H
  H296     1.0000 0.06350  0.93540  0.30430  Biso   1.000  H
  H297     1.0000 0.68650  0.43540  0.94570  Biso   1.000  H
  H298     1.0000 0.56350  0.81460  0.94570  Biso   1.000  H
  H299     1.0000 0.68650  0.81460  0.30430  Biso   1.000  H
  H300     1.0000 0.56350  0.43540  0.30430  Biso   1.000  H
  H301     1.0000 0.68650  0.93540  0.44570  Biso   1.000  H
  H302     1.0000 0.56350  0.31460  0.44570  Biso   1.000  H
  H303     1.0000 0.68650  0.31460  0.80430  Biso   1.000  H
  H304     1.0000 0.56350  0.93540  0.80430  Biso   1.000  H
  H305     1.0000 0.81350  0.56460  0.55430  Biso   1.000  H
  H306     1.0000 0.43650  0.68540  0.55430  Biso   1.000  H
  H307     1.0000 0.81350  0.68540  0.69570  Biso   1.000  H
  H308     1.0000 0.43650  0.56460  0.69570  Biso   1.000  H
  H309     1.0000 0.81350  0.06460  0.05430  Biso   1.000  H
  H310     1.0000 0.43650  0.18540  0.05430  Biso   1.000  H
  H311     1.0000 0.81350  0.18540  0.19570  Biso   1.000  H
  H312     1.0000 0.43650  0.06460  0.19570  Biso   1.000  H
  H313     1.0000 0.31350  0.56460  0.05430  Biso   1.000  H
  H314     1.0000 0.93650  0.68540  0.05430  Biso   1.000  H
  H315     1.0000 0.31350  0.68540  0.19570  Biso   1.000  H
  H316     1.0000 0.93650  0.56460  0.19570  Biso   1.000  H
  H317     1.0000 0.31350  0.06460  0.55430  Biso   1.000  H
  H318     1.0000 0.93650  0.18540  0.55430  Biso   1.000  H
  H319     1.0000 0.31350  0.18540  0.69570  Biso   1.000  H
  H320     1.0000 0.93650  0.06460  0.69570  Biso   1.000  H
  C449     1.0000 0.30580  0.47683  0.56198  Biso   1.000  C
  C450     1.0000 0.94420  0.77317  0.56198  Biso   1.000  C
  C451     1.0000 0.30580  0.77317  0.68802  Biso   1.000  C
  C452     1.0000 0.94420  0.47683  0.68802  Biso   1.000  C
  C453     1.0000 0.30580  0.97683  0.06198  Biso   1.000  C
  C454     1.0000 0.94420  0.27317  0.06198  Biso   1.000  C
  C455     1.0000 0.30580  0.27317  0.18802  Biso   1.000  C
  C456     1.0000 0.94420  0.97683  0.18802  Biso   1.000  C
  C457     1.0000 0.80580  0.47683  0.06198  Biso   1.000  C
  C458     1.0000 0.44420  0.77317  0.06198  Biso   1.000  C
  C459     1.0000 0.80580  0.77317  0.18802  Biso   1.000  C
  C460     1.0000 0.44420  0.47683  0.18802  Biso   1.000  C
  C461     1.0000 0.80580  0.97683  0.56198  Biso   1.000  C
  C462     1.0000 0.44420  0.27317  0.56198  Biso   1.000  C
  C463     1.0000 0.80580  0.27317  0.68802  Biso   1.000  C
  C464     1.0000 0.44420  0.97683  0.68802  Biso   1.000  C
  C465     1.0000 0.69420  0.52317  0.43802  Biso   1.000  C
  C466     1.0000 0.55580  0.72683  0.43802  Biso   1.000  C
  C467     1.0000 0.69420  0.72683  0.81198  Biso   1.000  C
  C468     1.0000 0.55580  0.52317  0.81198  Biso   1.000  C
  C469     1.0000 0.69420  0.02317  0.93802  Biso   1.000  C
  C470     1.0000 0.55580  0.22683  0.93802  Biso   1.000  C
  C471     1.0000 0.69420  0.22683  0.31198  Biso   1.000  C
  C472     1.0000 0.55580  0.02317  0.31198  Biso   1.000  C
  C473     1.0000 0.19420  0.52317  0.93802  Biso   1.000  C
  C474     1.0000 0.05580  0.72683  0.93802  Biso   1.000  C
  C475     1.0000 0.19420  0.72683  0.31198  Biso   1.000  C
  C476     1.0000 0.05580  0.52317  0.31198  Biso   1.000  C
  C477     1.0000 0.19420  0.02317  0.43802  Biso   1.000  C
  C478     1.0000 0.05580  0.22683  0.43802  Biso   1.000  C
  C479     1.0000 0.19420  0.22683  0.81198  Biso   1.000  C
  C480     1.0000 0.05580  0.02317  0.81198  Biso   1.000  C
  H321     1.0000 0.29120  0.45970  0.57520  Biso   1.000  H
  H322     1.0000 0.95880  0.79030  0.57520  Biso   1.000  H
  H323     1.0000 0.29120  0.79030  0.67480  Biso   1.000  H
  H324     1.0000 0.95880  0.45970  0.67480  Biso   1.000  H
  H325     1.0000 0.29120  0.95970  0.07520  Biso   1.000  H
  H326     1.0000 0.95880  0.29030  0.07520  Biso   1.000  H
  H327     1.0000 0.29120  0.29030  0.17480  Biso   1.000  H
  H328     1.0000 0.95880  0.95970  0.17480  Biso   1.000  H
  H329     1.0000 0.79120  0.45970  0.07520  Biso   1.000  H
  H330     1.0000 0.45880  0.79030  0.07520  Biso   1.000  H
  H331     1.0000 0.79120  0.79030  0.17480  Biso   1.000  H
  H332     1.0000 0.45880  0.45970  0.17480  Biso   1.000  H
  H333     1.0000 0.79120  0.95970  0.57520  Biso   1.000  H
  H334     1.0000 0.45880  0.29030  0.57520  Biso   1.000  H
  H335     1.0000 0.79120  0.29030  0.67480  Biso   1.000  H
  H336     1.0000 0.45880  0.95970  0.67480  Biso   1.000  H
  H337     1.0000 0.70880  0.54030  0.42480  Biso   1.000  H
  H338     1.0000 0.54120  0.70970  0.42480  Biso   1.000  H
  H339     1.0000 0.70880  0.70970  0.82520  Biso   1.000  H
  H340     1.0000 0.54120  0.54030  0.82520  Biso   1.000  H
  H341     1.0000 0.70880  0.04030  0.92480  Biso   1.000  H
  H342     1.0000 0.54120  0.20970  0.92480  Biso   1.000  H
  H343     1.0000 0.70880  0.20970  0.32520  Biso   1.000  H
  H344     1.0000 0.54120  0.04030  0.32520  Biso   1.000  H
  H345     1.0000 0.20880  0.54030  0.92480  Biso   1.000  H
  H346     1.0000 0.04120  0.70970  0.92480  Biso   1.000  H
  H347     1.0000 0.20880  0.70970  0.32520  Biso   1.000  H
  H348     1.0000 0.04120  0.54030  0.32520  Biso   1.000  H
  H349     1.0000 0.20880  0.04030  0.42480  Biso   1.000  H
  H350     1.0000 0.04120  0.20970  0.42480  Biso   1.000  H
  H351     1.0000 0.20880  0.20970  0.82520  Biso   1.000  H
  H352     1.0000 0.04120  0.04030  0.82520  Biso   1.000  H
  C481     1.0000 0.37590  0.52653  0.55261  Biso   1.000  C
  C482     1.0000 0.87410  0.72347  0.55261  Biso   1.000  C
  C483     1.0000 0.37590  0.72347  0.69739  Biso   1.000  C
  C484     1.0000 0.87410  0.52653  0.69739  Biso   1.000  C
  C485     1.0000 0.37590  0.02653  0.05261  Biso   1.000  C
  C486     1.0000 0.87410  0.22347  0.05261  Biso   1.000  C
  C487     1.0000 0.37590  0.22347  0.19739  Biso   1.000  C
  C488     1.0000 0.87410  0.02653  0.19739  Biso   1.000  C
  C489     1.0000 0.87590  0.52653  0.05261  Biso   1.000  C
  C490     1.0000 0.37410  0.72347  0.05261  Biso   1.000  C
  C491     1.0000 0.87590  0.72347  0.19739  Biso   1.000  C
  C492     1.0000 0.37410  0.52653  0.19739  Biso   1.000  C
  C493     1.0000 0.87590  0.02653  0.55261  Biso   1.000  C
  C494     1.0000 0.37410  0.22347  0.55261  Biso   1.000  C
  C495     1.0000 0.87590  0.22347  0.69739  Biso   1.000  C
  C496     1.0000 0.37410  0.02653  0.69739  Biso   1.000  C
  C497     1.0000 0.62410  0.47347  0.44739  Biso   1.000  C
  C498     1.0000 0.62590  0.77653  0.44739  Biso   1.000  C
  C499     1.0000 0.62410  0.77653  0.80261  Biso   1.000  C
  C500     1.0000 0.62590  0.47347  0.80261  Biso   1.000  C
  C501     1.0000 0.62410  0.97347  0.94739  Biso   1.000  C
  C502     1.0000 0.62590  0.27653  0.94739  Biso   1.000  C
  C503     1.0000 0.62410  0.27653  0.30261  Biso   1.000  C
  C504     1.0000 0.62590  0.97347  0.30261  Biso   1.000  C
  C505     1.0000 0.12410  0.47347  0.94739  Biso   1.000  C
  C506     1.0000 0.12590  0.77653  0.94739  Biso   1.000  C
  C507     1.0000 0.12410  0.77653  0.30261  Biso   1.000  C
  C508     1.0000 0.12590  0.47347  0.30261  Biso   1.000  C
  C509     1.0000 0.12410  0.97347  0.44739  Biso   1.000  C
  C510     1.0000 0.12590  0.27653  0.44739  Biso   1.000  C
  C511     1.0000 0.12410  0.27653  0.80261  Biso   1.000  C
  C512     1.0000 0.12590  0.97347  0.80261  Biso   1.000  C
  H353     1.0000 0.41040  0.54370  0.55940  Biso   1.000  H
  H354     1.0000 0.83960  0.70630  0.55940  Biso   1.000  H
  H355     1.0000 0.41040  0.70630  0.69060  Biso   1.000  H
  H356     1.0000 0.83960  0.54370  0.69060  Biso   1.000  H
  H357     1.0000 0.41040  0.04370  0.05940  Biso   1.000  H
  H358     1.0000 0.83960  0.20630  0.05940  Biso   1.000  H
  H359     1.0000 0.41040  0.20630  0.19060  Biso   1.000  H
  H360     1.0000 0.83960  0.04370  0.19060  Biso   1.000  H
  H361     1.0000 0.91040  0.54370  0.05940  Biso   1.000  H
  H362     1.0000 0.33960  0.70630  0.05940  Biso   1.000  H
  H363     1.0000 0.91040  0.70630  0.19060  Biso   1.000  H
  H364     1.0000 0.33960  0.54370  0.19060  Biso   1.000  H
  H365     1.0000 0.91040  0.04370  0.55940  Biso   1.000  H
  H366     1.0000 0.33960  0.20630  0.55940  Biso   1.000  H
  H367     1.0000 0.91040  0.20630  0.69060  Biso   1.000  H
  H368     1.0000 0.33960  0.04370  0.69060  Biso   1.000  H
  H369     1.0000 0.58960  0.45630  0.44060  Biso   1.000  H
  H370     1.0000 0.66040  0.79370  0.44060  Biso   1.000  H
  H371     1.0000 0.58960  0.79370  0.80940  Biso   1.000  H
  H372     1.0000 0.66040  0.45630  0.80940  Biso   1.000  H
  H373     1.0000 0.58960  0.95630  0.94060  Biso   1.000  H
  H374     1.0000 0.66040  0.29370  0.94060  Biso   1.000  H
  H375     1.0000 0.58960  0.29370  0.30940  Biso   1.000  H
  H376     1.0000 0.66040  0.95630  0.30940  Biso   1.000  H
  H377     1.0000 0.08960  0.45630  0.94060  Biso   1.000  H
  H378     1.0000 0.16040  0.79370  0.94060  Biso   1.000  H
  H379     1.0000 0.08960  0.79370  0.30940  Biso   1.000  H
  H380     1.0000 0.16040  0.45630  0.30940  Biso   1.000  H
  H381     1.0000 0.08960  0.95630  0.44060  Biso   1.000  H
  H382     1.0000 0.16040  0.29370  0.44060  Biso   1.000  H
  H383     1.0000 0.08960  0.29370  0.80940  Biso   1.000  H
  H384     1.0000 0.16040  0.95630  0.80940  Biso   1.000  H
  C513     1.0000 0.12800  0.58721  0.49468  Biso   1.000  C
  C514     1.0000 0.12200  0.66279  0.49468  Biso   1.000  C
  C515     1.0000 0.12800  0.66279  0.75532  Biso   1.000  C
  C516     1.0000 0.12200  0.58721  0.75532  Biso   1.000  C
  C517     1.0000 0.12800  0.08721  0.99468  Biso   1.000  C
  C518     1.0000 0.12200  0.16279  0.99468  Biso   1.000  C
  C519     1.0000 0.12800  0.16279  0.25532  Biso   1.000  C
  C520     1.0000 0.12200  0.08721  0.25532  Biso   1.000  C
  C521     1.0000 0.62800  0.58721  0.99468  Biso   1.000  C
  C522     1.0000 0.62200  0.66279  0.99468  Biso   1.000  C
  C523     1.0000 0.62800  0.66279  0.25532  Biso   1.000  C
  C524     1.0000 0.62200  0.58721  0.25532  Biso   1.000  C
  C525     1.0000 0.62800  0.08721  0.49468  Biso   1.000  C
  C526     1.0000 0.62200  0.16279  0.49468  Biso   1.000  C
  C527     1.0000 0.62800  0.16279  0.75532  Biso   1.000  C
  C528     1.0000 0.62200  0.08721  0.75532  Biso   1.000  C
  C529     1.0000 0.87200  0.41279  0.50532  Biso   1.000  C
  C530     1.0000 0.37800  0.83721  0.50532  Biso   1.000  C
  C531     1.0000 0.87200  0.83721  0.74468  Biso   1.000  C
  C532     1.0000 0.37800  0.41279  0.74468  Biso   1.000  C
  C533     1.0000 0.87200  0.91279  0.00532  Biso   1.000  C
  C534     1.0000 0.37800  0.33721  0.00532  Biso   1.000  C
  C535     1.0000 0.87200  0.33721  0.24468  Biso   1.000  C
  C536     1.0000 0.37800  0.91279  0.24468  Biso   1.000  C
  C537     1.0000 0.37200  0.41279  0.00532  Biso   1.000  C
  C538     1.0000 0.87800  0.83721  0.00532  Biso   1.000  C
  C539     1.0000 0.37200  0.83721  0.24468  Biso   1.000  C
  C540     1.0000 0.87800  0.41279  0.24468  Biso   1.000  C
  C541     1.0000 0.37200  0.91279  0.50532  Biso   1.000  C
  C542     1.0000 0.87800  0.33721  0.50532  Biso   1.000  C
  C543     1.0000 0.37200  0.33721  0.74468  Biso   1.000  C
  C544     1.0000 0.87800  0.91279  0.74468  Biso   1.000  C
  H385     1.0000 0.09490  0.59350  0.51230  Biso   1.000  H
  H386     1.0000 0.15510  0.65650  0.51230  Biso   1.000  H
  H387     1.0000 0.09490  0.65650  0.73770  Biso   1.000  H
  H388     1.0000 0.15510  0.59350  0.73770  Biso   1.000  H
  H389     1.0000 0.09490  0.09350  0.01230  Biso   1.000  H
  H390     1.0000 0.15510  0.15650  0.01230  Biso   1.000  H
  H391     1.0000 0.09490  0.15650  0.23770  Biso   1.000  H
  H392     1.0000 0.15510  0.09350  0.23770  Biso   1.000  H
  H393     1.0000 0.59490  0.59350  0.01230  Biso   1.000  H
  H394     1.0000 0.65510  0.65650  0.01230  Biso   1.000  H
  H395     1.0000 0.59490  0.65650  0.23770  Biso   1.000  H
  H396     1.0000 0.65510  0.59350  0.23770  Biso   1.000  H
  H397     1.0000 0.59490  0.09350  0.51230  Biso   1.000  H
  H398     1.0000 0.65510  0.15650  0.51230  Biso   1.000  H
  H399     1.0000 0.59490  0.15650  0.73770  Biso   1.000  H
  H400     1.0000 0.65510  0.09350  0.73770  Biso   1.000  H
  H401     1.0000 0.90510  0.40650  0.48770  Biso   1.000  H
  H402     1.0000 0.34490  0.84350  0.48770  Biso   1.000  H
  H403     1.0000 0.90510  0.84350  0.76230  Biso   1.000  H
  H404     1.0000 0.34490  0.40650  0.76230  Biso   1.000  H
  H405     1.0000 0.90510  0.90650  0.98770  Biso   1.000  H
  H406     1.0000 0.34490  0.34350  0.98770  Biso   1.000  H
  H407     1.0000 0.90510  0.34350  0.26230  Biso   1.000  H
  H408     1.0000 0.34490  0.90650  0.26230  Biso   1.000  H
  H409     1.0000 0.40510  0.40650  0.98770  Biso   1.000  H
  H410     1.0000 0.84490  0.84350  0.98770  Biso   1.000  H
  H411     1.0000 0.40510  0.84350  0.26230  Biso   1.000  H
  H412     1.0000 0.84490  0.40650  0.26230  Biso   1.000  H
  H413     1.0000 0.40510  0.90650  0.48770  Biso   1.000  H
  H414     1.0000 0.84490  0.34350  0.48770  Biso   1.000  H
  H415     1.0000 0.40510  0.34350  0.76230  Biso   1.000  H
  H416     1.0000 0.84490  0.90650  0.76230  Biso   1.000  H
  C545     1.0000 0.33980  0.48988  0.63157  Biso   1.000  C
  C546     1.0000 0.91020  0.76012  0.63157  Biso   1.000  C
  C547     1.0000 0.33980  0.76012  0.61843  Biso   1.000  C
  C548     1.0000 0.91020  0.48988  0.61843  Biso   1.000  C
  C549     1.0000 0.33980  0.98988  0.13157  Biso   1.000  C
  C550     1.0000 0.91020  0.26012  0.13157  Biso   1.000  C
  C551     1.0000 0.33980  0.26012  0.11843  Biso   1.000  C
  C552     1.0000 0.91020  0.98988  0.11843  Biso   1.000  C
  C553     1.0000 0.83980  0.48988  0.13157  Biso   1.000  C
  C554     1.0000 0.41020  0.76012  0.13157  Biso   1.000  C
  C555     1.0000 0.83980  0.76012  0.11843  Biso   1.000  C
  C556     1.0000 0.41020  0.48988  0.11843  Biso   1.000  C
  C557     1.0000 0.83980  0.98988  0.63157  Biso   1.000  C
  C558     1.0000 0.41020  0.26012  0.63157  Biso   1.000  C
  C559     1.0000 0.83980  0.26012  0.61843  Biso   1.000  C
  C560     1.0000 0.41020  0.98988  0.61843  Biso   1.000  C
  C561     1.0000 0.66020  0.51012  0.36843  Biso   1.000  C
  C562     1.0000 0.58980  0.73988  0.36843  Biso   1.000  C
  C563     1.0000 0.66020  0.73988  0.88157  Biso   1.000  C
  C564     1.0000 0.58980  0.51012  0.88157  Biso   1.000  C
  C565     1.0000 0.66020  0.01012  0.86843  Biso   1.000  C
  C566     1.0000 0.58980  0.23988  0.86843  Biso   1.000  C
  C567     1.0000 0.66020  0.23988  0.38157  Biso   1.000  C
  C568     1.0000 0.58980  0.01012  0.38157  Biso   1.000  C
  C569     1.0000 0.16020  0.51012  0.86843  Biso   1.000  C
  C570     1.0000 0.08980  0.73988  0.86843  Biso   1.000  C
  C571     1.0000 0.16020  0.73988  0.38157  Biso   1.000  C
  C572     1.0000 0.08980  0.51012  0.38157  Biso   1.000  C
  C573     1.0000 0.16020  0.01012  0.36843  Biso   1.000  C
  C574     1.0000 0.08980  0.23988  0.36843  Biso   1.000  C
  C575     1.0000 0.16020  0.23988  0.88157  Biso   1.000  C
  C576     1.0000 0.08980  0.01012  0.88157  Biso   1.000  C
  H417     1.0000 0.28400  0.48130  0.62750  Biso   1.000  H
  H418     1.0000 0.96600  0.76870  0.62750  Biso   1.000  H
  H419     1.0000 0.28400  0.76870  0.62250  Biso   1.000  H
  H420     1.0000 0.96600  0.48130  0.62250  Biso   1.000  H
  H421     1.0000 0.28400  0.98130  0.12750  Biso   1.000  H
  H422     1.0000 0.96600  0.26870  0.12750  Biso   1.000  H
  H423     1.0000 0.28400  0.26870  0.12250  Biso   1.000  H
  H424     1.0000 0.96600  0.98130  0.12250  Biso   1.000  H
  H425     1.0000 0.78400  0.48130  0.12750  Biso   1.000  H
  H426     1.0000 0.46600  0.76870  0.12750  Biso   1.000  H
  H427     1.0000 0.78400  0.76870  0.12250  Biso   1.000  H
  H428     1.0000 0.46600  0.48130  0.12250  Biso   1.000  H
  H429     1.0000 0.78400  0.98130  0.62750  Biso   1.000  H
  H430     1.0000 0.46600  0.26870  0.62750  Biso   1.000  H
  H431     1.0000 0.78400  0.26870  0.62250  Biso   1.000  H
  H432     1.0000 0.46600  0.98130  0.62250  Biso   1.000  H
  H433     1.0000 0.71600  0.51870  0.37250  Biso   1.000  H
  H434     1.0000 0.53400  0.73130  0.37250  Biso   1.000  H
  H435     1.0000 0.71600  0.73130  0.87750  Biso   1.000  H
  H436     1.0000 0.53400  0.51870  0.87750  Biso   1.000  H
  H437     1.0000 0.71600  0.01870  0.87250  Biso   1.000  H
  H438     1.0000 0.53400  0.23130  0.87250  Biso   1.000  H
  H439     1.0000 0.71600  0.23130  0.37750  Biso   1.000  H
  H440     1.0000 0.53400  0.01870  0.37750  Biso   1.000  H
  H441     1.0000 0.21600  0.51870  0.87250  Biso   1.000  H
  H442     1.0000 0.03400  0.73130  0.87250  Biso   1.000  H
  H443     1.0000 0.21600  0.73130  0.37750  Biso   1.000  H
  H444     1.0000 0.03400  0.51870  0.37750  Biso   1.000  H
  H445     1.0000 0.21600  0.01870  0.37250  Biso   1.000  H
  H446     1.0000 0.03400  0.23130  0.37250  Biso   1.000  H
  H447     1.0000 0.21600  0.23130  0.87750  Biso   1.000  H
  H448     1.0000 0.03400  0.01870  0.87750  Biso   1.000  H
  C577     1.0000 0.47210  0.51446  0.61426  Biso   1.000  C
  C578     1.0000 0.77790  0.73554  0.61426  Biso   1.000  C
  C579     1.0000 0.47210  0.73554  0.63574  Biso   1.000  C
  C580     1.0000 0.77790  0.51446  0.63574  Biso   1.000  C
  C581     1.0000 0.47210  0.01446  0.11426  Biso   1.000  C
  C582     1.0000 0.77790  0.23554  0.11426  Biso   1.000  C
  C583     1.0000 0.47210  0.23554  0.13574  Biso   1.000  C
  C584     1.0000 0.77790  0.01446  0.13574  Biso   1.000  C
  C585     1.0000 0.97210  0.51446  0.11426  Biso   1.000  C
  C586     1.0000 0.27790  0.73554  0.11426  Biso   1.000  C
  C587     1.0000 0.97210  0.73554  0.13574  Biso   1.000  C
  C588     1.0000 0.27790  0.51446  0.13574  Biso   1.000  C
  C589     1.0000 0.97210  0.01446  0.61426  Biso   1.000  C
  C590     1.0000 0.27790  0.23554  0.61426  Biso   1.000  C
  C591     1.0000 0.97210  0.23554  0.63574  Biso   1.000  C
  C592     1.0000 0.27790  0.01446  0.63574  Biso   1.000  C
  C593     1.0000 0.52790  0.48554  0.38574  Biso   1.000  C
  C594     1.0000 0.72210  0.76446  0.38574  Biso   1.000  C
  C595     1.0000 0.52790  0.76446  0.86426  Biso   1.000  C
  C596     1.0000 0.72210  0.48554  0.86426  Biso   1.000  C
  C597     1.0000 0.52790  0.98554  0.88574  Biso   1.000  C
  C598     1.0000 0.72210  0.26446  0.88574  Biso   1.000  C
  C599     1.0000 0.52790  0.26446  0.36426  Biso   1.000  C
  C600     1.0000 0.72210  0.98554  0.36426  Biso   1.000  C
  C601     1.0000 0.02790  0.48554  0.88574  Biso   1.000  C
  C602     1.0000 0.22210  0.76446  0.88574  Biso   1.000  C
  C603     1.0000 0.02790  0.76446  0.36426  Biso   1.000  C
  C604     1.0000 0.22210  0.48554  0.36426  Biso   1.000  C
  C605     1.0000 0.02790  0.98554  0.38574  Biso   1.000  C
  C606     1.0000 0.22210  0.26446  0.38574  Biso   1.000  C
  C607     1.0000 0.02790  0.26446  0.86426  Biso   1.000  C
  C608     1.0000 0.22210  0.98554  0.86426  Biso   1.000  C
  H449     1.0000 0.50750  0.52320  0.59830  Biso   1.000  H
  H450     1.0000 0.74250  0.72680  0.59830  Biso   1.000  H
  H451     1.0000 0.50750  0.72680  0.65170  Biso   1.000  H
  H452     1.0000 0.74250  0.52320  0.65170  Biso   1.000  H
  H453     1.0000 0.50750  0.02320  0.09830  Biso   1.000  H
  H454     1.0000 0.74250  0.22680  0.09830  Biso   1.000  H
  H455     1.0000 0.50750  0.22680  0.15170  Biso   1.000  H
  H456     1.0000 0.74250  0.02320  0.15170  Biso   1.000  H
  H457     1.0000 0.00750  0.52320  0.09830  Biso   1.000  H
  H458     1.0000 0.24250  0.72680  0.09830  Biso   1.000  H
  H459     1.0000 0.00750  0.72680  0.15170  Biso   1.000  H
  H460     1.0000 0.24250  0.52320  0.15170  Biso   1.000  H
  H461     1.0000 0.00750  0.02320  0.59830  Biso   1.000  H
  H462     1.0000 0.24250  0.22680  0.59830  Biso   1.000  H
  H463     1.0000 0.00750  0.22680  0.65170  Biso   1.000  H
  H464     1.0000 0.24250  0.02320  0.65170  Biso   1.000  H
  H465     1.0000 0.49250  0.47680  0.40170  Biso   1.000  H
  H466     1.0000 0.75750  0.77320  0.40170  Biso   1.000  H
  H467     1.0000 0.49250  0.77320  0.84830  Biso   1.000  H
  H468     1.0000 0.75750  0.47680  0.84830  Biso   1.000  H
  H469     1.0000 0.49250  0.97680  0.90170  Biso   1.000  H
  H470     1.0000 0.75750  0.27320  0.90170  Biso   1.000  H
  H471     1.0000 0.49250  0.27320  0.34830  Biso   1.000  H
  H472     1.0000 0.75750  0.97680  0.34830  Biso   1.000  H
  H473     1.0000 0.99250  0.47680  0.90170  Biso   1.000  H
  H474     1.0000 0.25750  0.77320  0.90170  Biso   1.000  H
  H475     1.0000 0.99250  0.77320  0.34830  Biso   1.000  H
  H476     1.0000 0.25750  0.47680  0.34830  Biso   1.000  H
  H477     1.0000 0.99250  0.97680  0.40170  Biso   1.000  H
  H478     1.0000 0.25750  0.27320  0.40170  Biso   1.000  H
  H479     1.0000 0.99250  0.27320  0.84830  Biso   1.000  H
  H480     1.0000 0.25750  0.97680  0.84830  Biso   1.000  H
  C609     1.0000 0.19540  0.59801  0.44460  Biso   1.000  C
  C610     1.0000 0.05460  0.65199  0.44460  Biso   1.000  C
  C611     1.0000 0.19540  0.65199  0.80540  Biso   1.000  C
  C612     1.0000 0.05460  0.59801  0.80540  Biso   1.000  C
  C613     1.0000 0.19540  0.09801  0.94460  Biso   1.000  C
  C614     1.0000 0.05460  0.15199  0.94460  Biso   1.000  C
  C615     1.0000 0.19540  0.15199  0.30540  Biso   1.000  C
  C616     1.0000 0.05460  0.09801  0.30540  Biso   1.000  C
  C617     1.0000 0.69540  0.59801  0.94460  Biso   1.000  C
  C618     1.0000 0.55460  0.65199  0.94460  Biso   1.000  C
  C619     1.0000 0.69540  0.65199  0.30540  Biso   1.000  C
  C620     1.0000 0.55460  0.59801  0.30540  Biso   1.000  C
  C621     1.0000 0.69540  0.09801  0.44460  Biso   1.000  C
  C622     1.0000 0.55460  0.15199  0.44460  Biso   1.000  C
  C623     1.0000 0.69540  0.15199  0.80540  Biso   1.000  C
  C624     1.0000 0.55460  0.09801  0.80540  Biso   1.000  C
  C625     1.0000 0.80460  0.40199  0.55540  Biso   1.000  C
  C626     1.0000 0.44540  0.84801  0.55540  Biso   1.000  C
  C627     1.0000 0.80460  0.84801  0.69460  Biso   1.000  C
  C628     1.0000 0.44540  0.40199  0.69460  Biso   1.000  C
  C629     1.0000 0.80460  0.90199  0.05540  Biso   1.000  C
  C630     1.0000 0.44540  0.34801  0.05540  Biso   1.000  C
  C631     1.0000 0.80460  0.34801  0.19460  Biso   1.000  C
  C632     1.0000 0.44540  0.90199  0.19460  Biso   1.000  C
  C633     1.0000 0.30460  0.40199  0.05540  Biso   1.000  C
  C634     1.0000 0.94540  0.84801  0.05540  Biso   1.000  C
  C635     1.0000 0.30460  0.84801  0.19460  Biso   1.000  C
  C636     1.0000 0.94540  0.40199  0.19460  Biso   1.000  C
  C637     1.0000 0.30460  0.90199  0.55540  Biso   1.000  C
  C638     1.0000 0.94540  0.34801  0.55540  Biso   1.000  C
  C639     1.0000 0.30460  0.34801  0.69460  Biso   1.000  C
  C640     1.0000 0.94540  0.90199  0.69460  Biso   1.000  C
  H481     1.0000 0.20800  0.61160  0.42760  Biso   1.000  H
  H482     1.0000 0.04200  0.63840  0.42760  Biso   1.000  H
  H483     1.0000 0.20800  0.63840  0.82240  Biso   1.000  H
  H484     1.0000 0.04200  0.61160  0.82240  Biso   1.000  H
  H485     1.0000 0.20800  0.11160  0.92760  Biso   1.000  H
  H486     1.0000 0.04200  0.13840  0.92760  Biso   1.000  H
  H487     1.0000 0.20800  0.13840  0.32240  Biso   1.000  H
  H488     1.0000 0.04200  0.11160  0.32240  Biso   1.000  H
  H489     1.0000 0.70800  0.61160  0.92760  Biso   1.000  H
  H490     1.0000 0.54200  0.63840  0.92760  Biso   1.000  H
  H491     1.0000 0.70800  0.63840  0.32240  Biso   1.000  H
  H492     1.0000 0.54200  0.61160  0.32240  Biso   1.000  H
  H493     1.0000 0.70800  0.11160  0.42760  Biso   1.000  H
  H494     1.0000 0.54200  0.13840  0.42760  Biso   1.000  H
  H495     1.0000 0.70800  0.13840  0.82240  Biso   1.000  H
  H496     1.0000 0.54200  0.11160  0.82240  Biso   1.000  H
  H497     1.0000 0.79200  0.38840  0.57240  Biso   1.000  H
  H498     1.0000 0.45800  0.86160  0.57240  Biso   1.000  H
  H499     1.0000 0.79200  0.86160  0.67760  Biso   1.000  H
  H500     1.0000 0.45800  0.38840  0.67760  Biso   1.000  H
  H501     1.0000 0.79200  0.88840  0.07240  Biso   1.000  H
  H502     1.0000 0.45800  0.36160  0.07240  Biso   1.000  H
  H503     1.0000 0.79200  0.36160  0.17760  Biso   1.000  H
  H504     1.0000 0.45800  0.88840  0.17760  Biso   1.000  H
  H505     1.0000 0.29200  0.38840  0.07240  Biso   1.000  H
  H506     1.0000 0.95800  0.86160  0.07240  Biso   1.000  H
  H507     1.0000 0.29200  0.86160  0.17760  Biso   1.000  H
  H508     1.0000 0.95800  0.38840  0.17760  Biso   1.000  H
  H509     1.0000 0.29200  0.88840  0.57240  Biso   1.000  H
  H510     1.0000 0.95800  0.36160  0.57240  Biso   1.000  H
  H511     1.0000 0.29200  0.36160  0.67760  Biso   1.000  H
  H512     1.0000 0.95800  0.88840  0.67760  Biso   1.000  H
  N97      1.0000 0.45310  0.50167  0.66916  Biso   1.000  N
  N98      1.0000 0.79690  0.74833  0.66916  Biso   1.000  N
  N99      1.0000 0.45310  0.74833  0.58084  Biso   1.000  N
  N100     1.0000 0.79690  0.50167  0.58084  Biso   1.000  N
  N101     1.0000 0.45310  0.00167  0.16916  Biso   1.000  N
  N102     1.0000 0.79690  0.24833  0.16916  Biso   1.000  N
  N103     1.0000 0.45310  0.24833  0.08084  Biso   1.000  N
  N104     1.0000 0.79690  0.00167  0.08084  Biso   1.000  N
  N105     1.0000 0.95310  0.50167  0.16916  Biso   1.000  N
  N106     1.0000 0.29690  0.74833  0.16916  Biso   1.000  N
  N107     1.0000 0.95310  0.74833  0.08084  Biso   1.000  N
  N108     1.0000 0.29690  0.50167  0.08084  Biso   1.000  N
  N109     1.0000 0.95310  0.00167  0.66916  Biso   1.000  N
  N110     1.0000 0.29690  0.24833  0.66916  Biso   1.000  N
  N111     1.0000 0.95310  0.24833  0.58084  Biso   1.000  N
  N112     1.0000 0.29690  0.00167  0.58084  Biso   1.000  N
  N113     1.0000 0.54690  0.49833  0.33084  Biso   1.000  N
  N114     1.0000 0.70310  0.75167  0.33084  Biso   1.000  N
  N115     1.0000 0.54690  0.75167  0.91916  Biso   1.000  N
  N116     1.0000 0.70310  0.49833  0.91916  Biso   1.000  N
  N117     1.0000 0.54690  0.99833  0.83084  Biso   1.000  N
  N118     1.0000 0.70310  0.25167  0.83084  Biso   1.000  N
  N119     1.0000 0.54690  0.25167  0.41916  Biso   1.000  N
  N120     1.0000 0.70310  0.99833  0.41916  Biso   1.000  N
  N121     1.0000 0.04690  0.49833  0.83084  Biso   1.000  N
  N122     1.0000 0.20310  0.75167  0.83084  Biso   1.000  N
  N123     1.0000 0.04690  0.75167  0.41916  Biso   1.000  N
  N124     1.0000 0.20310  0.49833  0.41916  Biso   1.000  N
  N125     1.0000 0.04690  0.99833  0.33084  Biso   1.000  N
  N126     1.0000 0.20310  0.25167  0.33084  Biso   1.000  N
  N127     1.0000 0.04690  0.25167  0.91916  Biso   1.000  N
  N128     1.0000 0.20310  0.99833  0.91916  Biso   1.000  N
  O1       1.0000 0.39500  0.51902  0.44179  Biso   1.000  O
  O2       1.0000 0.85500  0.73098  0.44179  Biso   1.000  O
  O3       1.0000 0.39500  0.73098  0.80821  Biso   1.000  O
  O4       1.0000 0.85500  0.51902  0.80821  Biso   1.000  O
  O5       1.0000 0.39500  0.01902  0.94179  Biso   1.000  O
  O6       1.0000 0.85500  0.23098  0.94179  Biso   1.000  O
  O7       1.0000 0.39500  0.23098  0.30821  Biso   1.000  O
  O8       1.0000 0.85500  0.01902  0.30821  Biso   1.000  O
  O9       1.0000 0.89500  0.51902  0.94179  Biso   1.000  O
  O10      1.0000 0.35500  0.73098  0.94179  Biso   1.000  O
  O11      1.0000 0.89500  0.73098  0.30821  Biso   1.000  O
  O12      1.0000 0.35500  0.51902  0.30821  Biso   1.000  O
  O13      1.0000 0.89500  0.01902  0.44179  Biso   1.000  O
  O14      1.0000 0.35500  0.23098  0.44179  Biso   1.000  O
  O15      1.0000 0.89500  0.23098  0.80821  Biso   1.000  O
  O16      1.0000 0.35500  0.01902  0.80821  Biso   1.000  O
  O17      1.0000 0.60500  0.48098  0.55821  Biso   1.000  O
  O18      1.0000 0.64500  0.76902  0.55821  Biso   1.000  O
  O19      1.0000 0.60500  0.76902  0.69179  Biso   1.000  O
  O20      1.0000 0.64500  0.48098  0.69179  Biso   1.000  O
  O21      1.0000 0.60500  0.98098  0.05821  Biso   1.000  O
  O22      1.0000 0.64500  0.26902  0.05821  Biso   1.000  O
  O23      1.0000 0.60500  0.26902  0.19179  Biso   1.000  O
  O24      1.0000 0.64500  0.98098  0.19179  Biso   1.000  O
  O25      1.0000 0.10500  0.48098  0.05821  Biso   1.000  O
  O26      1.0000 0.14500  0.76902  0.05821  Biso   1.000  O
  O27      1.0000 0.10500  0.76902  0.19179  Biso   1.000  O
  O28      1.0000 0.14500  0.48098  0.19179  Biso   1.000  O
  O29      1.0000 0.10500  0.98098  0.55821  Biso   1.000  O
  O30      1.0000 0.14500  0.26902  0.55821  Biso   1.000  O
  O31      1.0000 0.10500  0.26902  0.69179  Biso   1.000  O
  O32      1.0000 0.14500  0.98098  0.69179  Biso   1.000  O
  O33      1.0000 0.10480  0.48069  0.48362  Biso   1.000  O
  O34      1.0000 0.14520  0.76931  0.48362  Biso   1.000  O
  O35      1.0000 0.10480  0.76931  0.76638  Biso   1.000  O
  O36      1.0000 0.14520  0.48069  0.76638  Biso   1.000  O
  O37      1.0000 0.10480  0.98069  0.98362  Biso   1.000  O
  O38      1.0000 0.14520  0.26931  0.98362  Biso   1.000  O
  O39      1.0000 0.10480  0.26931  0.26638  Biso   1.000  O
  O40      1.0000 0.14520  0.98069  0.26638  Biso   1.000  O
  O41      1.0000 0.60480  0.48069  0.98362  Biso   1.000  O
  O42      1.0000 0.64520  0.76931  0.98362  Biso   1.000  O
  O43      1.0000 0.60480  0.76931  0.26638  Biso   1.000  O
  O44      1.0000 0.64520  0.48069  0.26638  Biso   1.000  O
  O45      1.0000 0.60480  0.98069  0.48362  Biso   1.000  O
  O46      1.0000 0.64520  0.26931  0.48362  Biso   1.000  O
  O47      1.0000 0.60480  0.26931  0.76638  Biso   1.000  O
  O48      1.0000 0.64520  0.98069  0.76638  Biso   1.000  O
  O49      1.0000 0.89520  0.51931  0.51638  Biso   1.000  O
  O50      1.0000 0.35480  0.73069  0.51638  Biso   1.000  O
  O51      1.0000 0.89520  0.73069  0.73362  Biso   1.000  O
  O52      1.0000 0.35480  0.51931  0.73362  Biso   1.000  O
  O53      1.0000 0.89520  0.01931  0.01638  Biso   1.000  O
  O54      1.0000 0.35480  0.23069  0.01638  Biso   1.000  O
  O55      1.0000 0.89520  0.23069  0.23362  Biso   1.000  O
  O56      1.0000 0.35480  0.01931  0.23362  Biso   1.000  O
  O57      1.0000 0.39520  0.51931  0.01638  Biso   1.000  O
  O58      1.0000 0.85480  0.73069  0.01638  Biso   1.000  O
  O59      1.0000 0.39520  0.73069  0.23362  Biso   1.000  O
  O60      1.0000 0.85480  0.51931  0.23362  Biso   1.000  O
  O61      1.0000 0.39520  0.01931  0.51638  Biso   1.000  O
  O62      1.0000 0.85480  0.23069  0.51638  Biso   1.000  O
  O63      1.0000 0.39520  0.23069  0.73362  Biso   1.000  O
  O64      1.0000 0.85480  0.01931  0.73362  Biso   1.000  O
  H513     1.0000 0.08750  0.47850  0.50280  Biso   1.000  H
  H514     1.0000 0.16250  0.77150  0.50280  Biso   1.000  H
  H515     1.0000 0.08750  0.77150  0.74720  Biso   1.000  H
  H516     1.0000 0.16250  0.47850  0.74720  Biso   1.000  H
  H517     1.0000 0.08750  0.97850  0.00280  Biso   1.000  H
  H518     1.0000 0.16250  0.27150  0.00280  Biso   1.000  H
  H519     1.0000 0.08750  0.27150  0.24720  Biso   1.000  H
  H520     1.0000 0.16250  0.97850  0.24720  Biso   1.000  H
  H521     1.0000 0.58750  0.47850  0.00280  Biso   1.000  H
  H522     1.0000 0.66250  0.77150  0.00280  Biso   1.000  H
  H523     1.0000 0.58750  0.77150  0.24720  Biso   1.000  H
  H524     1.0000 0.66250  0.47850  0.24720  Biso   1.000  H
  H525     1.0000 0.58750  0.97850  0.50280  Biso   1.000  H
  H526     1.0000 0.66250  0.27150  0.50280  Biso   1.000  H
  H527     1.0000 0.58750  0.27150  0.74720  Biso   1.000  H
  H528     1.0000 0.66250  0.97850  0.74720  Biso   1.000  H
  H529     1.0000 0.91250  0.52150  0.49720  Biso   1.000  H
  H530     1.0000 0.33750  0.72850  0.49720  Biso   1.000  H
  H531     1.0000 0.91250  0.72850  0.75280  Biso   1.000  H
  H532     1.0000 0.33750  0.52150  0.75280  Biso   1.000  H
  H533     1.0000 0.91250  0.02150  0.99720  Biso   1.000  H
  H534     1.0000 0.33750  0.22850  0.99720  Biso   1.000  H
  H535     1.0000 0.91250  0.22850  0.25280  Biso   1.000  H
  H536     1.0000 0.33750  0.02150  0.25280  Biso   1.000  H
  H537     1.0000 0.41250  0.52150  0.99720  Biso   1.000  H
  H538     1.0000 0.83750  0.72850  0.99720  Biso   1.000  H
  H539     1.0000 0.41250  0.72850  0.25280  Biso   1.000  H
  H540     1.0000 0.83750  0.52150  0.25280  Biso   1.000  H
  H541     1.0000 0.41250  0.02150  0.49720  Biso   1.000  H
  H542     1.0000 0.83750  0.22850  0.49720  Biso   1.000  H
  H543     1.0000 0.41250  0.22850  0.75280  Biso   1.000  H
  H544     1.0000 0.83750  0.02150  0.75280  Biso   1.000  H
  H545     1.0000 0.06670  0.47050  0.47270  Biso   1.000  H
  H546     1.0000 0.18330  0.77950  0.47270  Biso   1.000  H
  H547     1.0000 0.06670  0.77950  0.77730  Biso   1.000  H
  H548     1.0000 0.18330  0.47050  0.77730  Biso   1.000  H
  H549     1.0000 0.06670  0.97050  0.97270  Biso   1.000  H
  H550     1.0000 0.18330  0.27950  0.97270  Biso   1.000  H
  H551     1.0000 0.06670  0.27950  0.27730  Biso   1.000  H
  H552     1.0000 0.18330  0.97050  0.27730  Biso   1.000  H
  H553     1.0000 0.56670  0.47050  0.97270  Biso   1.000  H
  H554     1.0000 0.68330  0.77950  0.97270  Biso   1.000  H
  H555     1.0000 0.56670  0.77950  0.27730  Biso   1.000  H
  H556     1.0000 0.68330  0.47050  0.27730  Biso   1.000  H
  H557     1.0000 0.56670  0.97050  0.47270  Biso   1.000  H
  H558     1.0000 0.68330  0.27950  0.47270  Biso   1.000  H
  H559     1.0000 0.56670  0.27950  0.77730  Biso   1.000  H
  H560     1.0000 0.68330  0.97050  0.77730  Biso   1.000  H
  H561     1.0000 0.93330  0.52950  0.52730  Biso   1.000  H
  H562     1.0000 0.31670  0.72050  0.52730  Biso   1.000  H
  H563     1.0000 0.93330  0.72050  0.72270  Biso   1.000  H
  H564     1.0000 0.31670  0.52950  0.72270  Biso   1.000  H
  H565     1.0000 0.93330  0.02950  0.02730  Biso   1.000  H
  H566     1.0000 0.31670  0.22050  0.02730  Biso   1.000  H
  H567     1.0000 0.93330  0.22050  0.22270  Biso   1.000  H
  H568     1.0000 0.31670  0.02950  0.22270  Biso   1.000  H
  H569     1.0000 0.43330  0.52950  0.02730  Biso   1.000  H
  H570     1.0000 0.81670  0.72050  0.02730  Biso   1.000  H
  H571     1.0000 0.43330  0.72050  0.22270  Biso   1.000  H
  H572     1.0000 0.81670  0.52950  0.22270  Biso   1.000  H
  H573     1.0000 0.43330  0.02950  0.52730  Biso   1.000  H
  H574     1.0000 0.81670  0.22050  0.52730  Biso   1.000  H
  H575     1.0000 0.43330  0.22050  0.72270  Biso   1.000  H
  H576     1.0000 0.81670  0.02950  0.72270  Biso   1.000  H
  N129     1.0000 0.44830  0.53950  0.44660  Biso   1.000  N
  N130     1.0000 0.80170  0.71050  0.44660  Biso   1.000  N
  N131     1.0000 0.44830  0.71050  0.80340  Biso   1.000  N
  N132     1.0000 0.80170  0.53950  0.80340  Biso   1.000  N
  N133     1.0000 0.44830  0.03950  0.94660  Biso   1.000  N
  N134     1.0000 0.80170  0.21050  0.94660  Biso   1.000  N
  N135     1.0000 0.44830  0.21050  0.30340  Biso   1.000  N
  N136     1.0000 0.80170  0.03950  0.30340  Biso   1.000  N
  N137     1.0000 0.94830  0.53950  0.94660  Biso   1.000  N
  N138     1.0000 0.30170  0.71050  0.94660  Biso   1.000  N
  N139     1.0000 0.94830  0.71050  0.30340  Biso   1.000  N
  N140     1.0000 0.30170  0.53950  0.30340  Biso   1.000  N
  N141     1.0000 0.94830  0.03950  0.44660  Biso   1.000  N
  N142     1.0000 0.30170  0.21050  0.44660  Biso   1.000  N
  N143     1.0000 0.94830  0.21050  0.80340  Biso   1.000  N
  N144     1.0000 0.30170  0.03950  0.80340  Biso   1.000  N
  N145     1.0000 0.55170  0.46050  0.55340  Biso   1.000  N
  N146     1.0000 0.69830  0.78950  0.55340  Biso   1.000  N
  N147     1.0000 0.55170  0.78950  0.69660  Biso   1.000  N
  N148     1.0000 0.69830  0.46050  0.69660  Biso   1.000  N
  N149     1.0000 0.55170  0.96050  0.05340  Biso   1.000  N
  N150     1.0000 0.69830  0.28950  0.05340  Biso   1.000  N
  N151     1.0000 0.55170  0.28950  0.19660  Biso   1.000  N
  N152     1.0000 0.69830  0.96050  0.19660  Biso   1.000  N
  N153     1.0000 0.05170  0.46050  0.05340  Biso   1.000  N
  N154     1.0000 0.19830  0.78950  0.05340  Biso   1.000  N
  N155     1.0000 0.05170  0.78950  0.19660  Biso   1.000  N
  N156     1.0000 0.19830  0.46050  0.19660  Biso   1.000  N
  N157     1.0000 0.05170  0.96050  0.55340  Biso   1.000  N
  N158     1.0000 0.19830  0.28950  0.55340  Biso   1.000  N
  N159     1.0000 0.05170  0.28950  0.69660  Biso   1.000  N
  N160     1.0000 0.19830  0.96050  0.69660  Biso   1.000  N
  O65      1.0000 0.48920  0.55850  0.46680  Biso   1.000  O
  O66      1.0000 0.76080  0.69150  0.46680  Biso   1.000  O
  O67      1.0000 0.48920  0.69150  0.78320  Biso   1.000  O
  O68      1.0000 0.76080  0.55850  0.78320  Biso   1.000  O
  O69      1.0000 0.48920  0.05850  0.96680  Biso   1.000  O
  O70      1.0000 0.76080  0.19150  0.96680  Biso   1.000  O
  O71      1.0000 0.48920  0.19150  0.28320  Biso   1.000  O
  O72      1.0000 0.76080  0.05850  0.28320  Biso   1.000  O
  O73      1.0000 0.98920  0.55850  0.96680  Biso   1.000  O
  O74      1.0000 0.26080  0.69150  0.96680  Biso   1.000  O
  O75      1.0000 0.98920  0.69150  0.28320  Biso   1.000  O
  O76      1.0000 0.26080  0.55850  0.28320  Biso   1.000  O
  O77      1.0000 0.98920  0.05850  0.46680  Biso   1.000  O
  O78      1.0000 0.26080  0.19150  0.46680  Biso   1.000  O
  O79      1.0000 0.98920  0.19150  0.78320  Biso   1.000  O
  O80      1.0000 0.26080  0.05850  0.78320  Biso   1.000  O
  O81      1.0000 0.51080  0.44150  0.53320  Biso   1.000  O
  O82      1.0000 0.73920  0.80850  0.53320  Biso   1.000  O
  O83      1.0000 0.51080  0.80850  0.71680  Biso   1.000  O
  O84      1.0000 0.73920  0.44150  0.71680  Biso   1.000  O
  O85      1.0000 0.51080  0.94150  0.03320  Biso   1.000  O
  O86      1.0000 0.73920  0.30850  0.03320  Biso   1.000  O
  O87      1.0000 0.51080  0.30850  0.21680  Biso   1.000  O
  O88      1.0000 0.73920  0.94150  0.21680  Biso   1.000  O
  O89      1.0000 0.01080  0.44150  0.03320  Biso   1.000  O
  O90      1.0000 0.23920  0.80850  0.03320  Biso   1.000  O
  O91      1.0000 0.01080  0.80850  0.21680  Biso   1.000  O
  O92      1.0000 0.23920  0.44150  0.21680  Biso   1.000  O
  O93      1.0000 0.01080  0.94150  0.53320  Biso   1.000  O
  O94      1.0000 0.23920  0.30850  0.53320  Biso   1.000  O
  O95      1.0000 0.01080  0.30850  0.71680  Biso   1.000  O
  O96      1.0000 0.23920  0.94150  0.71680  Biso   1.000  O
  O97      1.0000 0.47260  0.55660  0.42150  Biso   1.000  O
  O98      1.0000 0.77740  0.69340  0.42150  Biso   1.000  O
  O99      1.0000 0.47260  0.69340  0.82850  Biso   1.000  O
  O100     1.0000 0.77740  0.55660  0.82850  Biso   1.000  O
  O101     1.0000 0.47260  0.05660  0.92150  Biso   1.000  O
  O102     1.0000 0.77740  0.19340  0.92150  Biso   1.000  O
  O103     1.0000 0.47260  0.19340  0.32850  Biso   1.000  O
  O104     1.0000 0.77740  0.05660  0.32850  Biso   1.000  O
  O105     1.0000 0.97260  0.55660  0.92150  Biso   1.000  O
  O106     1.0000 0.27740  0.69340  0.92150  Biso   1.000  O
  O107     1.0000 0.97260  0.69340  0.32850  Biso   1.000  O
  O108     1.0000 0.27740  0.55660  0.32850  Biso   1.000  O
  O109     1.0000 0.97260  0.05660  0.42150  Biso   1.000  O
  O110     1.0000 0.27740  0.19340  0.42150  Biso   1.000  O
  O111     1.0000 0.97260  0.19340  0.82850  Biso   1.000  O
  O112     1.0000 0.27740  0.05660  0.82850  Biso   1.000  O
  O113     1.0000 0.52740  0.44340  0.57850  Biso   1.000  O
  O114     1.0000 0.72260  0.80660  0.57850  Biso   1.000  O
  O115     1.0000 0.52740  0.80660  0.67150  Biso   1.000  O
  O116     1.0000 0.72260  0.44340  0.67150  Biso   1.000  O
  O117     1.0000 0.52740  0.94340  0.07850  Biso   1.000  O
  O118     1.0000 0.72260  0.30660  0.07850  Biso   1.000  O
  O119     1.0000 0.52740  0.30660  0.17150  Biso   1.000  O
  O120     1.0000 0.72260  0.94340  0.17150  Biso   1.000  O
  O121     1.0000 0.02740  0.44340  0.07850  Biso   1.000  O
  O122     1.0000 0.22260  0.80660  0.07850  Biso   1.000  O
  O123     1.0000 0.02740  0.80660  0.17150  Biso   1.000  O
  O124     1.0000 0.22260  0.44340  0.17150  Biso   1.000  O
  O125     1.0000 0.02740  0.94340  0.57850  Biso   1.000  O
  O126     1.0000 0.22260  0.30660  0.57850  Biso   1.000  O
  O127     1.0000 0.02740  0.30660  0.67150  Biso   1.000  O
  O128     1.0000 0.22260  0.94340  0.67150  Biso   1.000  O
  O129     1.0000 0.37380  0.60950  0.50250  Biso   1.000  O
  O130     1.0000 0.87620  0.64050  0.50250  Biso   1.000  O
  O131     1.0000 0.37380  0.64050  0.74750  Biso   1.000  O
  O132     1.0000 0.87620  0.60950  0.74750  Biso   1.000  O
  O133     1.0000 0.37380  0.10950  0.00250  Biso   1.000  O
  O134     1.0000 0.87620  0.14050  0.00250  Biso   1.000  O
  O135     1.0000 0.37380  0.14050  0.24750  Biso   1.000  O
  O136     1.0000 0.87620  0.10950  0.24750  Biso   1.000  O
  O137     1.0000 0.87380  0.60950  0.00250  Biso   1.000  O
  O138     1.0000 0.37620  0.64050  0.00250  Biso   1.000  O
  O139     1.0000 0.87380  0.64050  0.24750  Biso   1.000  O
  O140     1.0000 0.37620  0.60950  0.24750  Biso   1.000  O
  O141     1.0000 0.87380  0.10950  0.50250  Biso   1.000  O
  O142     1.0000 0.37620  0.14050  0.50250  Biso   1.000  O
  O143     1.0000 0.87380  0.14050  0.74750  Biso   1.000  O
  O144     1.0000 0.37620  0.10950  0.74750  Biso   1.000  O
  O145     1.0000 0.62620  0.39050  0.49750  Biso   1.000  O
  O146     1.0000 0.62380  0.85950  0.49750  Biso   1.000  O
  O147     1.0000 0.62620  0.85950  0.75250  Biso   1.000  O
  O148     1.0000 0.62380  0.39050  0.75250  Biso   1.000  O
  O149     1.0000 0.62620  0.89050  0.99750  Biso   1.000  O
  O150     1.0000 0.62380  0.35950  0.99750  Biso   1.000  O
  O151     1.0000 0.62620  0.35950  0.25250  Biso   1.000  O
  O152     1.0000 0.62380  0.89050  0.25250  Biso   1.000  O
  O153     1.0000 0.12620  0.39050  0.99750  Biso   1.000  O
  O154     1.0000 0.12380  0.85950  0.99750  Biso   1.000  O
  O155     1.0000 0.12620  0.85950  0.25250  Biso   1.000  O
  O156     1.0000 0.12380  0.39050  0.25250  Biso   1.000  O
  O157     1.0000 0.12620  0.89050  0.49750  Biso   1.000  O
  O158     1.0000 0.12380  0.35950  0.49750  Biso   1.000  O
  O159     1.0000 0.12620  0.35950  0.75250  Biso   1.000  O
  O160     1.0000 0.12380  0.89050  0.75250  Biso   1.000  O
  O161     1.0000 0.37500  0.55010  0.37500  Biso   1.000  O
  O162     1.0000 0.87500  0.69990  0.37500  Biso   1.000  O
  O163     1.0000 0.37500  0.69990  0.87500  Biso   1.000  O
  O164     1.0000 0.87500  0.55010  0.87500  Biso   1.000  O
  O165     1.0000 0.37500  0.05010  0.87500  Biso   1.000  O
  O166     1.0000 0.87500  0.19990  0.87500  Biso   1.000  O
  O167     1.0000 0.37500  0.19990  0.37500  Biso   1.000  O
  O168     1.0000 0.87500  0.05010  0.37500  Biso   1.000  O
  O169     1.0000 0.62500  0.44990  0.62500  Biso   1.000  O
  O170     1.0000 0.62500  0.80010  0.62500  Biso   1.000  O
  O171     1.0000 0.62500  0.94990  0.12500  Biso   1.000  O
  O172     1.0000 0.62500  0.30010  0.12500  Biso   1.000  O
  O173     1.0000 0.12500  0.44990  0.12500  Biso   1.000  O
  O174     1.0000 0.12500  0.80010  0.12500  Biso   1.000  O
  O175     1.0000 0.12500  0.94990  0.62500  Biso   1.000  O
  O176     1.0000 0.12500  0.30010  0.62500  Biso   1.000  O
