
#######################################################################
#
#                 Cambridge Crystallographic Data Centre
#                                CCDC
#
#######################################################################
#
# If this CIF has been generated from an entry in the Cambridge
# Structural Database, then it will include bibliographic, chemical,
# crystal, experimental, refinement or atomic coordinate data resulting
# from the CCDC's data processing and validation procedures.
#
#######################################################################

data_UiO66_GC1
_symmetry_cell_setting           cubic
_symmetry_space_group_name_H-M   'F m -3 m'
_symmetry_Int_Tables_number      225
_space_group_name_Hall           '-F 4 2 3'
loop_
_symmetry_equiv_pos_site_id
_symmetry_equiv_pos_as_xyz
1 x,y,z
2 -x,-y,z
3 -x,y,-z
4 x,-y,-z
5 z,x,y
6 z,-x,-y
7 -z,-x,y
8 -z,x,-y
9 y,z,x
10 -y,z,-x
11 y,-z,-x
12 -y,-z,x
13 y,x,-z
14 -y,-x,-z
15 y,-x,z
16 -y,x,z
17 x,z,-y
18 -x,z,y
19 -x,-z,-y
20 x,-z,y
21 z,y,-x
22 z,-y,x
23 -z,y,x
24 -z,-y,-x
25 x,1/2+y,1/2+z
26 -x,1/2-y,1/2+z
27 -x,1/2+y,1/2-z
28 x,1/2-y,1/2-z
29 z,1/2+x,1/2+y
30 z,1/2-x,1/2-y
31 -z,1/2-x,1/2+y
32 -z,1/2+x,1/2-y
33 y,1/2+z,1/2+x
34 -y,1/2+z,1/2-x
35 y,1/2-z,1/2-x
36 -y,1/2-z,1/2+x
37 y,1/2+x,1/2-z
38 -y,1/2-x,1/2-z
39 y,1/2-x,1/2+z
40 -y,1/2+x,1/2+z
41 x,1/2+z,1/2-y
42 -x,1/2+z,1/2+y
43 -x,1/2-z,1/2-y
44 x,1/2-z,1/2+y
45 z,1/2+y,1/2-x
46 z,1/2-y,1/2+x
47 -z,1/2+y,1/2+x
48 -z,1/2-y,1/2-x
49 1/2+x,y,1/2+z
50 1/2-x,-y,1/2+z
51 1/2-x,y,1/2-z
52 1/2+x,-y,1/2-z
53 1/2+z,x,1/2+y
54 1/2+z,-x,1/2-y
55 1/2-z,-x,1/2+y
56 1/2-z,x,1/2-y
57 1/2+y,z,1/2+x
58 1/2-y,z,1/2-x
59 1/2+y,-z,1/2-x
60 1/2-y,-z,1/2+x
61 1/2+y,x,1/2-z
62 1/2-y,-x,1/2-z
63 1/2+y,-x,1/2+z
64 1/2-y,x,1/2+z
65 1/2+x,z,1/2-y
66 1/2-x,z,1/2+y
67 1/2-x,-z,1/2-y
68 1/2+x,-z,1/2+y
69 1/2+z,y,1/2-x
70 1/2+z,-y,1/2+x
71 1/2-z,y,1/2+x
72 1/2-z,-y,1/2-x
73 1/2+x,1/2+y,z
74 1/2-x,1/2-y,z
75 1/2-x,1/2+y,-z
76 1/2+x,1/2-y,-z
77 1/2+z,1/2+x,y
78 1/2+z,1/2-x,-y
79 1/2-z,1/2-x,y
80 1/2-z,1/2+x,-y
81 1/2+y,1/2+z,x
82 1/2-y,1/2+z,-x
83 1/2+y,1/2-z,-x
84 1/2-y,1/2-z,x
85 1/2+y,1/2+x,-z
86 1/2-y,1/2-x,-z
87 1/2+y,1/2-x,z
88 1/2-y,1/2+x,z
89 1/2+x,1/2+z,-y
90 1/2-x,1/2+z,y
91 1/2-x,1/2-z,-y
92 1/2+x,1/2-z,y
93 1/2+z,1/2+y,-x
94 1/2+z,1/2-y,x
95 1/2-z,1/2+y,x
96 1/2-z,1/2-y,-x
97 -x,-y,-z
98 x,y,-z
99 x,-y,z
100 -x,y,z
101 -z,-x,-y
102 -z,x,y
103 z,x,-y
104 z,-x,y
105 -y,-z,-x
106 y,-z,x
107 -y,z,x
108 y,z,-x
109 -y,-x,z
110 y,x,z
111 -y,x,-z
112 y,-x,-z
113 -x,-z,y
114 x,-z,-y
115 x,z,y
116 -x,z,-y
117 -z,-y,x
118 -z,y,-x
119 z,-y,-x
120 z,y,x
121 -x,1/2-y,1/2-z
122 x,1/2+y,1/2-z
123 x,1/2-y,1/2+z
124 -x,1/2+y,1/2+z
125 -z,1/2-x,1/2-y
126 -z,1/2+x,1/2+y
127 z,1/2+x,1/2-y
128 z,1/2-x,1/2+y
129 -y,1/2-z,1/2-x
130 y,1/2-z,1/2+x
131 -y,1/2+z,1/2+x
132 y,1/2+z,1/2-x
133 -y,1/2-x,1/2+z
134 y,1/2+x,1/2+z
135 -y,1/2+x,1/2-z
136 y,1/2-x,1/2-z
137 -x,1/2-z,1/2+y
138 x,1/2-z,1/2-y
139 x,1/2+z,1/2+y
140 -x,1/2+z,1/2-y
141 -z,1/2-y,1/2+x
142 -z,1/2+y,1/2-x
143 z,1/2-y,1/2-x
144 z,1/2+y,1/2+x
145 1/2-x,-y,1/2-z
146 1/2+x,y,1/2-z
147 1/2+x,-y,1/2+z
148 1/2-x,y,1/2+z
149 1/2-z,-x,1/2-y
150 1/2-z,x,1/2+y
151 1/2+z,x,1/2-y
152 1/2+z,-x,1/2+y
153 1/2-y,-z,1/2-x
154 1/2+y,-z,1/2+x
155 1/2-y,z,1/2+x
156 1/2+y,z,1/2-x
157 1/2-y,-x,1/2+z
158 1/2+y,x,1/2+z
159 1/2-y,x,1/2-z
160 1/2+y,-x,1/2-z
161 1/2-x,-z,1/2+y
162 1/2+x,-z,1/2-y
163 1/2+x,z,1/2+y
164 1/2-x,z,1/2-y
165 1/2-z,-y,1/2+x
166 1/2-z,y,1/2-x
167 1/2+z,-y,1/2-x
168 1/2+z,y,1/2+x
169 1/2-x,1/2-y,-z
170 1/2+x,1/2+y,-z
171 1/2+x,1/2-y,z
172 1/2-x,1/2+y,z
173 1/2-z,1/2-x,-y
174 1/2-z,1/2+x,y
175 1/2+z,1/2+x,-y
176 1/2+z,1/2-x,y
177 1/2-y,1/2-z,-x
178 1/2+y,1/2-z,x
179 1/2-y,1/2+z,x
180 1/2+y,1/2+z,-x
181 1/2-y,1/2-x,z
182 1/2+y,1/2+x,z
183 1/2-y,1/2+x,-z
184 1/2+y,1/2-x,-z
185 1/2-x,1/2-z,y
186 1/2+x,1/2-z,-y
187 1/2+x,1/2+z,y
188 1/2-x,1/2+z,-y
189 1/2-z,1/2-y,x
190 1/2-z,1/2+y,-x
191 1/2+z,1/2-y,-x
192 1/2+z,1/2+y,x
_cell_length_a                   20.7570(7)
_cell_length_b                   20.7570(7)
_cell_length_c                   20.7570(7)
_cell_angle_alpha                90
_cell_angle_beta                 90
_cell_angle_gamma                90
_cell_volume                     8943.22
loop_
_atom_site_label
_atom_site_type_symbol
_atom_site_fract_x
_atom_site_fract_y
_atom_site_fract_z
Zr1 Zr 0.11929(2) 0.0000 0.0000
O1A O 0.17084(14) 0.09384(14) 0.0000
C1 C 0.15157(17) 0.15157(17) 0.0000
C2 C 0.20279(18) 0.20279(18) 0.0000
C3 C 0.1858(2) 0.2669(2) 0.0000
H3 H 0.1425 0.2785 0.0000
O1A O 0.09384(14) 0.17084(14) 0.0000
C3 C 0.2669(2) 0.1858(2) 0.0000
H3 H 0.2785 0.1425 0.0000
O1A O 0.40616(14) 0.32916(14) 0.0000
C1 C 0.34843(17) 0.34843(17) 0.0000
C2 C 0.29721(18) 0.29721(18) 0.0000
C3 C 0.2331(2) 0.3142(2) 0.0000
H3 H 0.2215 0.3575 0.0000
O1A O 0.32916(14) 0.40616(14) 0.0000
C3 C 0.3142(2) 0.2331(2) 0.0000
H3 H 0.3575 0.2215 0.0000
Zr1 Zr 0.0000 0.11929(2) 0.0000
Zr1 Zr 0.0000 -0.11929(2) 0.0000
Zr1 Zr 0.0000 0.0000 0.11929(2)
Zr1 Zr 0.0000 0.0000 -0.11929(2)
Zr1 Zr 0.38071(2) 0.5000 0.0000
Zr1 Zr 0.5000 0.38071(2) 0.0000
O1A O 0.17084(14) -0.09384(14) 0.0000
O1A O 0.17084(14) 0.0000 -0.09384(14)
O1A O 0.17084(14) 0.0000 0.09384(14)
Zr1 Zr 0.11929(2) 0.0000 1.0000
O1A O 0.17084(14) 0.09384(14) 1.0000
C1 C 0.15157(17) 0.15157(17) 1.0000
C2 C 0.20279(18) 0.20279(18) 1.0000
C3 C 0.1858(2) 0.2669(2) 1.0000
H3 H 0.1425 0.2785 1.0000
O1A O 0.09384(14) 0.17084(14) 1.0000
C3 C 0.2669(2) 0.1858(2) 1.0000
H3 H 0.2785 0.1425 1.0000
O1A O 0.40616(14) 0.32916(14) 1.0000
C1 C 0.34843(17) 0.34843(17) 1.0000
C2 C 0.29721(18) 0.29721(18) 1.0000
C3 C 0.2331(2) 0.3142(2) 1.0000
H3 H 0.2215 0.3575 1.0000
O1A O 0.32916(14) 0.40616(14) 1.0000
C3 C 0.3142(2) 0.2331(2) 1.0000
H3 H 0.3575 0.2215 1.0000
Zr1 Zr 0.0000 0.11929(2) 1.0000
Zr1 Zr 0.0000 -0.11929(2) 1.0000
Zr1 Zr 0.0000 0.0000 1.11929(2)
Zr1 Zr 0.0000 0.0000 0.88071(2)
Zr1 Zr 0.38071(2) 0.5000 1.0000
Zr1 Zr 0.5000 0.38071(2) 1.0000
O1A O 0.17084(14) -0.09384(14) 1.0000
O1A O 0.17084(14) 0.0000 0.90616(14)
O1A O 0.17084(14) 0.0000 1.09384(14)
Zr1 Zr 0.88071(2) 1.0000 0.0000
O1A O 0.82916(14) 0.90616(14) 0.0000
C1 C 0.84843(17) 0.84843(17) 0.0000
C2 C 0.79721(18) 0.79721(18) 0.0000
C3 C 0.8142(2) 0.7331(2) 0.0000
H3 H 0.8575 0.7215 0.0000
O1A O 0.90616(14) 0.82916(14) 0.0000
C3 C 0.7331(2) 0.8142(2) 0.0000
H3 H 0.7215 0.8575 0.0000
O1A O 0.59384(14) 0.67084(14) 0.0000
C1 C 0.65157(17) 0.65157(17) 0.0000
C2 C 0.70279(18) 0.70279(18) 0.0000
C3 C 0.7669(2) 0.6858(2) 0.0000
H3 H 0.7785 0.6425 0.0000
O1A O 0.67084(14) 0.59384(14) 0.0000
C3 C 0.6858(2) 0.7669(2) 0.0000
H3 H 0.6425 0.7785 0.0000
Zr1 Zr 1.0000 0.88071(2) 0.0000
Zr1 Zr 1.0000 1.11929(2) 0.0000
Zr1 Zr 1.0000 1.0000 0.11929(2)
Zr1 Zr 1.0000 1.0000 -0.11929(2)
Zr1 Zr 0.61929(2) 0.5000 0.0000
Zr1 Zr 0.5000 0.61929(2) 0.0000
O1A O 0.82916(14) 1.09384(14) 0.0000
O1A O 0.82916(14) 1.0000 -0.09384(14)
O1A O 0.82916(14) 1.0000 0.09384(14)
Zr1 Zr 0.88071(2) 1.0000 1.0000
O1A O 0.82916(14) 0.90616(14) 1.0000
C1 C 0.84843(17) 0.84843(17) 1.0000
C2 C 0.79721(18) 0.79721(18) 1.0000
C3 C 0.8142(2) 0.7331(2) 1.0000
H3 H 0.8575 0.7215 1.0000
O1A O 0.90616(14) 0.82916(14) 1.0000
C3 C 0.7331(2) 0.8142(2) 1.0000
H3 H 0.7215 0.8575 1.0000
O1A O 0.59384(14) 0.67084(14) 1.0000
C1 C 0.65157(17) 0.65157(17) 1.0000
C2 C 0.70279(18) 0.70279(18) 1.0000
C3 C 0.7669(2) 0.6858(2) 1.0000
H3 H 0.7785 0.6425 1.0000
O1A O 0.67084(14) 0.59384(14) 1.0000
C3 C 0.6858(2) 0.7669(2) 1.0000
H3 H 0.6425 0.7785 1.0000
Zr1 Zr 1.0000 0.88071(2) 1.0000
Zr1 Zr 1.0000 1.11929(2) 1.0000
Zr1 Zr 1.0000 1.0000 1.11929(2)
Zr1 Zr 1.0000 1.0000 0.88071(2)
Zr1 Zr 0.61929(2) 0.5000 1.0000
Zr1 Zr 0.5000 0.61929(2) 1.0000
O1A O 0.82916(14) 1.09384(14) 1.0000
O1A O 0.82916(14) 1.0000 0.90616(14)
O1A O 0.82916(14) 1.0000 1.09384(14)
Zr1 Zr 0.88071(2) 0.0000 0.0000
O1A O 0.82916(14) 0.09384(14) 0.0000
C1 C 0.84843(17) 0.15157(17) 0.0000
C2 C 0.79721(18) 0.20279(18) 0.0000
C3 C 0.8142(2) 0.2669(2) 0.0000
H3 H 0.8575 0.2785 0.0000
O1A O 0.90616(14) 0.17084(14) 0.0000
C3 C 0.7331(2) 0.1858(2) 0.0000
H3 H 0.7215 0.1425 0.0000
O1A O 0.59384(14) 0.32916(14) 0.0000
C1 C 0.65157(17) 0.34843(17) 0.0000
C2 C 0.70279(18) 0.29721(18) 0.0000
C3 C 0.7669(2) 0.3142(2) 0.0000
H3 H 0.7785 0.3575 0.0000
O1A O 0.67084(14) 0.40616(14) 0.0000
C3 C 0.6858(2) 0.2331(2) 0.0000
H3 H 0.6425 0.2215 0.0000
Zr1 Zr 1.0000 0.11929(2) 0.0000
Zr1 Zr 1.0000 -0.11929(2) 0.0000
Zr1 Zr 1.0000 0.0000 -0.11929(2)
Zr1 Zr 1.0000 0.0000 0.11929(2)
O1A O 0.82916(14) -0.09384(14) 0.0000
O1A O 0.82916(14) 0.0000 0.09384(14)
O1A O 0.82916(14) 0.0000 -0.09384(14)
Zr1 Zr 0.88071(2) 0.0000 1.0000
O1A O 0.82916(14) 0.09384(14) 1.0000
C1 C 0.84843(17) 0.15157(17) 1.0000
C2 C 0.79721(18) 0.20279(18) 1.0000
C3 C 0.8142(2) 0.2669(2) 1.0000
H3 H 0.8575 0.2785 1.0000
O1A O 0.90616(14) 0.17084(14) 1.0000
C3 C 0.7331(2) 0.1858(2) 1.0000
H3 H 0.7215 0.1425 1.0000
O1A O 0.59384(14) 0.32916(14) 1.0000
C1 C 0.65157(17) 0.34843(17) 1.0000
C2 C 0.70279(18) 0.29721(18) 1.0000
C3 C 0.7669(2) 0.3142(2) 1.0000
H3 H 0.7785 0.3575 1.0000
O1A O 0.67084(14) 0.40616(14) 1.0000
C3 C 0.6858(2) 0.2331(2) 1.0000
H3 H 0.6425 0.2215 1.0000
Zr1 Zr 1.0000 0.11929(2) 1.0000
Zr1 Zr 1.0000 -0.11929(2) 1.0000
Zr1 Zr 1.0000 0.0000 0.88071(2)
Zr1 Zr 1.0000 0.0000 1.11929(2)
O1A O 0.82916(14) -0.09384(14) 1.0000
O1A O 0.82916(14) 0.0000 1.09384(14)
O1A O 0.82916(14) 0.0000 0.90616(14)
Zr1 Zr 0.11929(2) 1.0000 0.0000
O1A O 0.17084(14) 0.90616(14) 0.0000
C1 C 0.15157(17) 0.84843(17) 0.0000
C2 C 0.20279(18) 0.79721(18) 0.0000
C3 C 0.1858(2) 0.7331(2) 0.0000
H3 H 0.1425 0.7215 0.0000
O1A O 0.09384(14) 0.82916(14) 0.0000
C3 C 0.2669(2) 0.8142(2) 0.0000
H3 H 0.2785 0.8575 0.0000
O1A O 0.40616(14) 0.67084(14) 0.0000
C1 C 0.34843(17) 0.65157(17) 0.0000
C2 C 0.29721(18) 0.70279(18) 0.0000
C3 C 0.2331(2) 0.6858(2) 0.0000
H3 H 0.2215 0.6425 0.0000
O1A O 0.32916(14) 0.59384(14) 0.0000
C3 C 0.3142(2) 0.7669(2) 0.0000
H3 H 0.3575 0.7785 0.0000
Zr1 Zr 0.0000 0.88071(2) 0.0000
Zr1 Zr 0.0000 1.11929(2) 0.0000
Zr1 Zr 0.0000 1.0000 -0.11929(2)
Zr1 Zr 0.0000 1.0000 0.11929(2)
O1A O 0.17084(14) 1.09384(14) 0.0000
O1A O 0.17084(14) 1.0000 0.09384(14)
O1A O 0.17084(14) 1.0000 -0.09384(14)
Zr1 Zr 0.11929(2) 1.0000 1.0000
O1A O 0.17084(14) 0.90616(14) 1.0000
C1 C 0.15157(17) 0.84843(17) 1.0000
C2 C 0.20279(18) 0.79721(18) 1.0000
C3 C 0.1858(2) 0.7331(2) 1.0000
H3 H 0.1425 0.7215 1.0000
O1A O 0.09384(14) 0.82916(14) 1.0000
C3 C 0.2669(2) 0.8142(2) 1.0000
H3 H 0.2785 0.8575 1.0000
O1A O 0.40616(14) 0.67084(14) 1.0000
C1 C 0.34843(17) 0.65157(17) 1.0000
C2 C 0.29721(18) 0.70279(18) 1.0000
C3 C 0.2331(2) 0.6858(2) 1.0000
H3 H 0.2215 0.6425 1.0000
O1A O 0.32916(14) 0.59384(14) 1.0000
C3 C 0.3142(2) 0.7669(2) 1.0000
H3 H 0.3575 0.7785 1.0000
Zr1 Zr 0.0000 0.88071(2) 1.0000
Zr1 Zr 0.0000 1.11929(2) 1.0000
Zr1 Zr 0.0000 1.0000 0.88071(2)
Zr1 Zr 0.0000 1.0000 1.11929(2)
O1A O 0.17084(14) 1.09384(14) 1.0000
O1A O 0.17084(14) 1.0000 1.09384(14)
O1A O 0.17084(14) 1.0000 0.90616(14)
O1A O 0.0000 0.17084(14) 0.09384(14)
C1 C 0.0000 0.15157(17) 0.15157(17)
C2 C 0.0000 0.20279(18) 0.20279(18)
C3 C 0.0000 0.1858(2) 0.2669(2)
H3 H 0.0000 0.1425 0.2785
O1A O 0.0000 0.09384(14) 0.17084(14)
C3 C 0.0000 0.2669(2) 0.1858(2)
H3 H 0.0000 0.2785 0.1425
O1A O 0.0000 0.40616(14) 0.32916(14)
C1 C 0.0000 0.34843(17) 0.34843(17)
C2 C 0.0000 0.29721(18) 0.29721(18)
C3 C 0.0000 0.2331(2) 0.3142(2)
H3 H 0.0000 0.2215 0.3575
O1A O 0.0000 0.32916(14) 0.40616(14)
C3 C 0.0000 0.3142(2) 0.2331(2)
H3 H 0.0000 0.3575 0.2215
Zr1 Zr -0.11929(2) 0.0000 0.0000
Zr1 Zr 0.0000 0.38071(2) 0.5000
Zr1 Zr 0.0000 0.5000 0.38071(2)
O1A O 0.0000 0.17084(14) -0.09384(14)
O1A O -0.09384(14) 0.17084(14) 0.0000
O1A O 1.0000 0.17084(14) 0.09384(14)
C1 C 1.0000 0.15157(17) 0.15157(17)
C2 C 1.0000 0.20279(18) 0.20279(18)
C3 C 1.0000 0.1858(2) 0.2669(2)
H3 H 1.0000 0.1425 0.2785
O1A O 1.0000 0.09384(14) 0.17084(14)
C3 C 1.0000 0.2669(2) 0.1858(2)
H3 H 1.0000 0.2785 0.1425
O1A O 1.0000 0.40616(14) 0.32916(14)
C1 C 1.0000 0.34843(17) 0.34843(17)
C2 C 1.0000 0.29721(18) 0.29721(18)
C3 C 1.0000 0.2331(2) 0.3142(2)
H3 H 1.0000 0.2215 0.3575
O1A O 1.0000 0.32916(14) 0.40616(14)
C3 C 1.0000 0.3142(2) 0.2331(2)
H3 H 1.0000 0.3575 0.2215
Zr1 Zr 1.11929(2) 0.0000 0.0000
Zr1 Zr 1.0000 0.38071(2) 0.5000
Zr1 Zr 1.0000 0.5000 0.38071(2)
O1A O 1.0000 0.17084(14) -0.09384(14)
O1A O 1.09384(14) 0.17084(14) 0.0000
O1A O 0.0000 0.82916(14) 0.90616(14)
C1 C 0.0000 0.84843(17) 0.84843(17)
C2 C 0.0000 0.79721(18) 0.79721(18)
C3 C 0.0000 0.8142(2) 0.7331(2)
H3 H 0.0000 0.8575 0.7215
O1A O 0.0000 0.90616(14) 0.82916(14)
C3 C 0.0000 0.7331(2) 0.8142(2)
H3 H 0.0000 0.7215 0.8575
O1A O 0.0000 0.59384(14) 0.67084(14)
C1 C 0.0000 0.65157(17) 0.65157(17)
C2 C 0.0000 0.70279(18) 0.70279(18)
C3 C 0.0000 0.7669(2) 0.6858(2)
H3 H 0.0000 0.7785 0.6425
O1A O 0.0000 0.67084(14) 0.59384(14)
C3 C 0.0000 0.6858(2) 0.7669(2)
H3 H 0.0000 0.6425 0.7785
Zr1 Zr -0.11929(2) 1.0000 1.0000
Zr1 Zr 0.0000 0.61929(2) 0.5000
Zr1 Zr 0.0000 0.5000 0.61929(2)
O1A O 0.0000 0.82916(14) 1.09384(14)
O1A O -0.09384(14) 0.82916(14) 1.0000
O1A O 1.0000 0.82916(14) 0.90616(14)
C1 C 1.0000 0.84843(17) 0.84843(17)
C2 C 1.0000 0.79721(18) 0.79721(18)
C3 C 1.0000 0.8142(2) 0.7331(2)
H3 H 1.0000 0.8575 0.7215
O1A O 1.0000 0.90616(14) 0.82916(14)
C3 C 1.0000 0.7331(2) 0.8142(2)
H3 H 1.0000 0.7215 0.8575
O1A O 1.0000 0.59384(14) 0.67084(14)
C1 C 1.0000 0.65157(17) 0.65157(17)
C2 C 1.0000 0.70279(18) 0.70279(18)
C3 C 1.0000 0.7669(2) 0.6858(2)
H3 H 1.0000 0.7785 0.6425
O1A O 1.0000 0.67084(14) 0.59384(14)
C3 C 1.0000 0.6858(2) 0.7669(2)
H3 H 1.0000 0.6425 0.7785
Zr1 Zr 1.11929(2) 1.0000 1.0000
Zr1 Zr 1.0000 0.61929(2) 0.5000
Zr1 Zr 1.0000 0.5000 0.61929(2)
O1A O 1.0000 0.82916(14) 1.09384(14)
O1A O 1.09384(14) 0.82916(14) 1.0000
O1A O 0.0000 0.82916(14) 0.09384(14)
C1 C 0.0000 0.84843(17) 0.15157(17)
C2 C 0.0000 0.79721(18) 0.20279(18)
C3 C 0.0000 0.8142(2) 0.2669(2)
H3 H 0.0000 0.8575 0.2785
O1A O 0.0000 0.90616(14) 0.17084(14)
C3 C 0.0000 0.7331(2) 0.1858(2)
H3 H 0.0000 0.7215 0.1425
O1A O 0.0000 0.59384(14) 0.32916(14)
C1 C 0.0000 0.65157(17) 0.34843(17)
C2 C 0.0000 0.70279(18) 0.29721(18)
C3 C 0.0000 0.7669(2) 0.3142(2)
H3 H 0.0000 0.7785 0.3575
O1A O 0.0000 0.67084(14) 0.40616(14)
C3 C 0.0000 0.6858(2) 0.2331(2)
H3 H 0.0000 0.6425 0.2215
Zr1 Zr -0.11929(2) 1.0000 0.0000
O1A O 0.0000 0.82916(14) -0.09384(14)
O1A O -0.09384(14) 0.82916(14) 0.0000
O1A O 1.0000 0.82916(14) 0.09384(14)
C1 C 1.0000 0.84843(17) 0.15157(17)
C2 C 1.0000 0.79721(18) 0.20279(18)
C3 C 1.0000 0.8142(2) 0.2669(2)
H3 H 1.0000 0.8575 0.2785
O1A O 1.0000 0.90616(14) 0.17084(14)
C3 C 1.0000 0.7331(2) 0.1858(2)
H3 H 1.0000 0.7215 0.1425
O1A O 1.0000 0.59384(14) 0.32916(14)
C1 C 1.0000 0.65157(17) 0.34843(17)
C2 C 1.0000 0.70279(18) 0.29721(18)
C3 C 1.0000 0.7669(2) 0.3142(2)
H3 H 1.0000 0.7785 0.3575
O1A O 1.0000 0.67084(14) 0.40616(14)
C3 C 1.0000 0.6858(2) 0.2331(2)
H3 H 1.0000 0.6425 0.2215
Zr1 Zr 1.11929(2) 1.0000 0.0000
O1A O 1.0000 0.82916(14) -0.09384(14)
O1A O 1.09384(14) 0.82916(14) 0.0000
O1A O 0.0000 0.17084(14) 0.90616(14)
C1 C 0.0000 0.15157(17) 0.84843(17)
C2 C 0.0000 0.20279(18) 0.79721(18)
C3 C 0.0000 0.1858(2) 0.7331(2)
H3 H 0.0000 0.1425 0.7215
O1A O 0.0000 0.09384(14) 0.82916(14)
C3 C 0.0000 0.2669(2) 0.8142(2)
H3 H 0.0000 0.2785 0.8575
O1A O 0.0000 0.40616(14) 0.67084(14)
C1 C 0.0000 0.34843(17) 0.65157(17)
C2 C 0.0000 0.29721(18) 0.70279(18)
C3 C 0.0000 0.2331(2) 0.6858(2)
H3 H 0.0000 0.2215 0.6425
O1A O 0.0000 0.32916(14) 0.59384(14)
C3 C 0.0000 0.3142(2) 0.7669(2)
H3 H 0.0000 0.3575 0.7785
Zr1 Zr -0.11929(2) 0.0000 1.0000
O1A O 0.0000 0.17084(14) 1.09384(14)
O1A O -0.09384(14) 0.17084(14) 1.0000
O1A O 1.0000 0.17084(14) 0.90616(14)
C1 C 1.0000 0.15157(17) 0.84843(17)
C2 C 1.0000 0.20279(18) 0.79721(18)
C3 C 1.0000 0.1858(2) 0.7331(2)
H3 H 1.0000 0.1425 0.7215
O1A O 1.0000 0.09384(14) 0.82916(14)
C3 C 1.0000 0.2669(2) 0.8142(2)
H3 H 1.0000 0.2785 0.8575
O1A O 1.0000 0.40616(14) 0.67084(14)
C1 C 1.0000 0.34843(17) 0.65157(17)
C2 C 1.0000 0.29721(18) 0.70279(18)
C3 C 1.0000 0.2331(2) 0.6858(2)
H3 H 1.0000 0.2215 0.6425
O1A O 1.0000 0.32916(14) 0.59384(14)
C3 C 1.0000 0.3142(2) 0.7669(2)
H3 H 1.0000 0.3575 0.7785
Zr1 Zr 1.11929(2) 0.0000 1.0000
O1A O 1.0000 0.17084(14) 1.09384(14)
O1A O 1.09384(14) 0.17084(14) 1.0000
O1A O 0.09384(14) 0.0000 0.17084(14)
C1 C 0.15157(17) 0.0000 0.15157(17)
C2 C 0.20279(18) 0.0000 0.20279(18)
C3 C 0.2669(2) 0.0000 0.1858(2)
H3 H 0.2785 0.0000 0.1425
C3 C 0.1858(2) 0.0000 0.2669(2)
H3 H 0.1425 0.0000 0.2785
O1A O 0.32916(14) 0.0000 0.40616(14)
C1 C 0.34843(17) 0.0000 0.34843(17)
C2 C 0.29721(18) 0.0000 0.29721(18)
C3 C 0.3142(2) 0.0000 0.2331(2)
H3 H 0.3575 0.0000 0.2215
O1A O 0.40616(14) 0.0000 0.32916(14)
C3 C 0.2331(2) 0.0000 0.3142(2)
H3 H 0.2215 0.0000 0.3575
Zr1 Zr 0.5000 0.0000 0.38071(2)
Zr1 Zr 0.38071(2) 0.0000 0.5000
O1A O -0.09384(14) 0.0000 0.17084(14)
O1A O 0.0000 -0.09384(14) 0.17084(14)
O1A O 0.09384(14) 1.0000 0.17084(14)
C1 C 0.15157(17) 1.0000 0.15157(17)
C2 C 0.20279(18) 1.0000 0.20279(18)
C3 C 0.2669(2) 1.0000 0.1858(2)
H3 H 0.2785 1.0000 0.1425
C3 C 0.1858(2) 1.0000 0.2669(2)
H3 H 0.1425 1.0000 0.2785
O1A O 0.32916(14) 1.0000 0.40616(14)
C1 C 0.34843(17) 1.0000 0.34843(17)
C2 C 0.29721(18) 1.0000 0.29721(18)
C3 C 0.3142(2) 1.0000 0.2331(2)
H3 H 0.3575 1.0000 0.2215
O1A O 0.40616(14) 1.0000 0.32916(14)
C3 C 0.2331(2) 1.0000 0.3142(2)
H3 H 0.2215 1.0000 0.3575
Zr1 Zr 0.5000 1.0000 0.38071(2)
Zr1 Zr 0.38071(2) 1.0000 0.5000
O1A O -0.09384(14) 1.0000 0.17084(14)
O1A O 0.0000 1.09384(14) 0.17084(14)
O1A O 0.90616(14) 0.0000 0.82916(14)
C1 C 0.84843(17) 0.0000 0.84843(17)
C2 C 0.79721(18) 0.0000 0.79721(18)
C3 C 0.7331(2) 0.0000 0.8142(2)
H3 H 0.7215 0.0000 0.8575
C3 C 0.8142(2) 0.0000 0.7331(2)
H3 H 0.8575 0.0000 0.7215
O1A O 0.67084(14) 0.0000 0.59384(14)
C1 C 0.65157(17) 0.0000 0.65157(17)
C2 C 0.70279(18) 0.0000 0.70279(18)
C3 C 0.6858(2) 0.0000 0.7669(2)
H3 H 0.6425 0.0000 0.7785
O1A O 0.59384(14) 0.0000 0.67084(14)
C3 C 0.7669(2) 0.0000 0.6858(2)
H3 H 0.7785 0.0000 0.6425
Zr1 Zr 0.5000 0.0000 0.61929(2)
Zr1 Zr 0.61929(2) 0.0000 0.5000
O1A O 1.09384(14) 0.0000 0.82916(14)
O1A O 1.0000 -0.09384(14) 0.82916(14)
O1A O 0.90616(14) 1.0000 0.82916(14)
C1 C 0.84843(17) 1.0000 0.84843(17)
C2 C 0.79721(18) 1.0000 0.79721(18)
C3 C 0.7331(2) 1.0000 0.8142(2)
H3 H 0.7215 1.0000 0.8575
C3 C 0.8142(2) 1.0000 0.7331(2)
H3 H 0.8575 1.0000 0.7215
O1A O 0.67084(14) 1.0000 0.59384(14)
C1 C 0.65157(17) 1.0000 0.65157(17)
C2 C 0.70279(18) 1.0000 0.70279(18)
C3 C 0.6858(2) 1.0000 0.7669(2)
H3 H 0.6425 1.0000 0.7785
O1A O 0.59384(14) 1.0000 0.67084(14)
C3 C 0.7669(2) 1.0000 0.6858(2)
H3 H 0.7785 1.0000 0.6425
Zr1 Zr 0.5000 1.0000 0.61929(2)
Zr1 Zr 0.61929(2) 1.0000 0.5000
O1A O 1.09384(14) 1.0000 0.82916(14)
O1A O 1.0000 1.09384(14) 0.82916(14)
O1A O 0.09384(14) 0.0000 0.82916(14)
C1 C 0.15157(17) 0.0000 0.84843(17)
C2 C 0.20279(18) 0.0000 0.79721(18)
C3 C 0.2669(2) 0.0000 0.8142(2)
H3 H 0.2785 0.0000 0.8575
C3 C 0.1858(2) 0.0000 0.7331(2)
H3 H 0.1425 0.0000 0.7215
O1A O 0.32916(14) 0.0000 0.59384(14)
C1 C 0.34843(17) 0.0000 0.65157(17)
C2 C 0.29721(18) 0.0000 0.70279(18)
C3 C 0.3142(2) 0.0000 0.7669(2)
H3 H 0.3575 0.0000 0.7785
O1A O 0.40616(14) 0.0000 0.67084(14)
C3 C 0.2331(2) 0.0000 0.6858(2)
H3 H 0.2215 0.0000 0.6425
O1A O -0.09384(14) 0.0000 0.82916(14)
O1A O 0.0000 -0.09384(14) 0.82916(14)
O1A O 0.09384(14) 1.0000 0.82916(14)
C1 C 0.15157(17) 1.0000 0.84843(17)
C2 C 0.20279(18) 1.0000 0.79721(18)
C3 C 0.2669(2) 1.0000 0.8142(2)
H3 H 0.2785 1.0000 0.8575
C3 C 0.1858(2) 1.0000 0.7331(2)
H3 H 0.1425 1.0000 0.7215
O1A O 0.32916(14) 1.0000 0.59384(14)
C1 C 0.34843(17) 1.0000 0.65157(17)
C2 C 0.29721(18) 1.0000 0.70279(18)
C3 C 0.3142(2) 1.0000 0.7669(2)
H3 H 0.3575 1.0000 0.7785
O1A O 0.40616(14) 1.0000 0.67084(14)
C3 C 0.2331(2) 1.0000 0.6858(2)
H3 H 0.2215 1.0000 0.6425
O1A O -0.09384(14) 1.0000 0.82916(14)
O1A O 0.0000 1.09384(14) 0.82916(14)
O1A O 0.90616(14) 0.0000 0.17084(14)
C1 C 0.84843(17) 0.0000 0.15157(17)
C2 C 0.79721(18) 0.0000 0.20279(18)
C3 C 0.7331(2) 0.0000 0.1858(2)
H3 H 0.7215 0.0000 0.1425
C3 C 0.8142(2) 0.0000 0.2669(2)
H3 H 0.8575 0.0000 0.2785
O1A O 0.67084(14) 0.0000 0.40616(14)
C1 C 0.65157(17) 0.0000 0.34843(17)
C2 C 0.70279(18) 0.0000 0.29721(18)
C3 C 0.6858(2) 0.0000 0.2331(2)
H3 H 0.6425 0.0000 0.2215
O1A O 0.59384(14) 0.0000 0.32916(14)
C3 C 0.7669(2) 0.0000 0.3142(2)
H3 H 0.7785 0.0000 0.3575
O1A O 1.09384(14) 0.0000 0.17084(14)
O1A O 1.0000 -0.09384(14) 0.17084(14)
O1A O 0.90616(14) 1.0000 0.17084(14)
C1 C 0.84843(17) 1.0000 0.15157(17)
C2 C 0.79721(18) 1.0000 0.20279(18)
C3 C 0.7331(2) 1.0000 0.1858(2)
H3 H 0.7215 1.0000 0.1425
C3 C 0.8142(2) 1.0000 0.2669(2)
H3 H 0.8575 1.0000 0.2785
O1A O 0.67084(14) 1.0000 0.40616(14)
C1 C 0.65157(17) 1.0000 0.34843(17)
C2 C 0.70279(18) 1.0000 0.29721(18)
C3 C 0.6858(2) 1.0000 0.2331(2)
H3 H 0.6425 1.0000 0.2215
O1A O 0.59384(14) 1.0000 0.32916(14)
C3 C 0.7669(2) 1.0000 0.3142(2)
H3 H 0.7785 1.0000 0.3575
O1A O 1.09384(14) 1.0000 0.17084(14)
O1A O 1.0000 1.09384(14) 0.17084(14)
Zr1 Zr 0.11929(2) 0.5000 0.5000
O1A O 0.17084(14) 0.59384(14) 0.5000
C1 C 0.15157(17) 0.65157(17) 0.5000
C2 C 0.20279(18) 0.70279(18) 0.5000
C3 C 0.1858(2) 0.7669(2) 0.5000
H3 H 0.1425 0.7785 0.5000
O1A O 0.09384(14) 0.67084(14) 0.5000
C3 C 0.2669(2) 0.6858(2) 0.5000
H3 H 0.2785 0.6425 0.5000
O1A O 0.40616(14) 0.82916(14) 0.5000
C1 C 0.34843(17) 0.84843(17) 0.5000
C2 C 0.29721(18) 0.79721(18) 0.5000
C3 C 0.2331(2) 0.8142(2) 0.5000
H3 H 0.2215 0.8575 0.5000
O1A O 0.32916(14) 0.90616(14) 0.5000
C3 C 0.3142(2) 0.7331(2) 0.5000
H3 H 0.3575 0.7215 0.5000
Zr1 Zr 0.5000 0.88071(2) 0.5000
O1A O 0.17084(14) 0.40616(14) 0.5000
O1A O 0.17084(14) 0.5000 0.40616(14)
O1A O 0.17084(14) 0.5000 0.59384(14)
Zr1 Zr 0.88071(2) 0.5000 0.5000
O1A O 0.82916(14) 0.40616(14) 0.5000
C1 C 0.84843(17) 0.34843(17) 0.5000
C2 C 0.79721(18) 0.29721(18) 0.5000
C3 C 0.8142(2) 0.2331(2) 0.5000
H3 H 0.8575 0.2215 0.5000
O1A O 0.90616(14) 0.32916(14) 0.5000
C3 C 0.7331(2) 0.3142(2) 0.5000
H3 H 0.7215 0.3575 0.5000
O1A O 0.59384(14) 0.17084(14) 0.5000
C1 C 0.65157(17) 0.15157(17) 0.5000
C2 C 0.70279(18) 0.20279(18) 0.5000
C3 C 0.7669(2) 0.1858(2) 0.5000
H3 H 0.7785 0.1425 0.5000
O1A O 0.67084(14) 0.09384(14) 0.5000
C3 C 0.6858(2) 0.2669(2) 0.5000
H3 H 0.6425 0.2785 0.5000
Zr1 Zr 0.5000 0.11929(2) 0.5000
O1A O 0.82916(14) 0.59384(14) 0.5000
O1A O 0.82916(14) 0.5000 0.40616(14)
O1A O 0.82916(14) 0.5000 0.59384(14)
C1 C 0.84843(17) 0.65157(17) 0.5000
C2 C 0.79721(18) 0.70279(18) 0.5000
C3 C 0.8142(2) 0.7669(2) 0.5000
H3 H 0.8575 0.7785 0.5000
O1A O 0.90616(14) 0.67084(14) 0.5000
C3 C 0.7331(2) 0.6858(2) 0.5000
H3 H 0.7215 0.6425 0.5000
O1A O 0.59384(14) 0.82916(14) 0.5000
C1 C 0.65157(17) 0.84843(17) 0.5000
C2 C 0.70279(18) 0.79721(18) 0.5000
C3 C 0.7669(2) 0.8142(2) 0.5000
H3 H 0.7785 0.8575 0.5000
O1A O 0.67084(14) 0.90616(14) 0.5000
C3 C 0.6858(2) 0.7331(2) 0.5000
H3 H 0.6425 0.7215 0.5000
C1 C 0.15157(17) 0.34843(17) 0.5000
C2 C 0.20279(18) 0.29721(18) 0.5000
C3 C 0.1858(2) 0.2331(2) 0.5000
H3 H 0.1425 0.2215 0.5000
O1A O 0.09384(14) 0.32916(14) 0.5000
C3 C 0.2669(2) 0.3142(2) 0.5000
H3 H 0.2785 0.3575 0.5000
O1A O 0.40616(14) 0.17084(14) 0.5000
C1 C 0.34843(17) 0.15157(17) 0.5000
C2 C 0.29721(18) 0.20279(18) 0.5000
C3 C 0.2331(2) 0.1858(2) 0.5000
H3 H 0.2215 0.1425 0.5000
O1A O 0.32916(14) 0.09384(14) 0.5000
C3 C 0.3142(2) 0.2669(2) 0.5000
H3 H 0.3575 0.2785 0.5000
Zr1 Zr -0.11929(2) 0.5000 0.5000
O1A O -0.09384(14) 0.67084(14) 0.5000
Zr1 Zr 1.11929(2) 0.5000 0.5000
O1A O 1.09384(14) 0.67084(14) 0.5000
O1A O -0.09384(14) 0.32916(14) 0.5000
O1A O 1.09384(14) 0.32916(14) 0.5000
O1A O 0.09384(14) 0.5000 0.67084(14)
C1 C 0.15157(17) 0.5000 0.65157(17)
C2 C 0.20279(18) 0.5000 0.70279(18)
C3 C 0.2669(2) 0.5000 0.6858(2)
H3 H 0.2785 0.5000 0.6425
C3 C 0.1858(2) 0.5000 0.7669(2)
H3 H 0.1425 0.5000 0.7785
O1A O 0.32916(14) 0.5000 0.90616(14)
C1 C 0.34843(17) 0.5000 0.84843(17)
C2 C 0.29721(18) 0.5000 0.79721(18)
C3 C 0.3142(2) 0.5000 0.7331(2)
H3 H 0.3575 0.5000 0.7215
O1A O 0.40616(14) 0.5000 0.82916(14)
C3 C 0.2331(2) 0.5000 0.8142(2)
H3 H 0.2215 0.5000 0.8575
Zr1 Zr 0.5000 0.5000 0.88071(2)
O1A O -0.09384(14) 0.5000 0.67084(14)
O1A O 0.90616(14) 0.5000 0.32916(14)
C1 C 0.84843(17) 0.5000 0.34843(17)
C2 C 0.79721(18) 0.5000 0.29721(18)
C3 C 0.7331(2) 0.5000 0.3142(2)
H3 H 0.7215 0.5000 0.3575
C3 C 0.8142(2) 0.5000 0.2331(2)
H3 H 0.8575 0.5000 0.2215
O1A O 0.67084(14) 0.5000 0.09384(14)
C1 C 0.65157(17) 0.5000 0.15157(17)
C2 C 0.70279(18) 0.5000 0.20279(18)
C3 C 0.6858(2) 0.5000 0.2669(2)
H3 H 0.6425 0.5000 0.2785
O1A O 0.59384(14) 0.5000 0.17084(14)
C3 C 0.7669(2) 0.5000 0.1858(2)
H3 H 0.7785 0.5000 0.1425
Zr1 Zr 0.5000 0.5000 0.11929(2)
O1A O 1.09384(14) 0.5000 0.32916(14)
O1A O 0.09384(14) 0.5000 0.32916(14)
C1 C 0.15157(17) 0.5000 0.34843(17)
C2 C 0.20279(18) 0.5000 0.29721(18)
C3 C 0.2669(2) 0.5000 0.3142(2)
H3 H 0.2785 0.5000 0.3575
C3 C 0.1858(2) 0.5000 0.2331(2)
H3 H 0.1425 0.5000 0.2215
O1A O 0.32916(14) 0.5000 0.09384(14)
C1 C 0.34843(17) 0.5000 0.15157(17)
C2 C 0.29721(18) 0.5000 0.20279(18)
C3 C 0.3142(2) 0.5000 0.2669(2)
H3 H 0.3575 0.5000 0.2785
O1A O 0.40616(14) 0.5000 0.17084(14)
C3 C 0.2331(2) 0.5000 0.1858(2)
H3 H 0.2215 0.5000 0.1425
O1A O -0.09384(14) 0.5000 0.32916(14)
O1A O 0.90616(14) 0.5000 0.67084(14)
C1 C 0.84843(17) 0.5000 0.65157(17)
C2 C 0.79721(18) 0.5000 0.70279(18)
C3 C 0.7331(2) 0.5000 0.6858(2)
H3 H 0.7215 0.5000 0.6425
C3 C 0.8142(2) 0.5000 0.7669(2)
H3 H 0.8575 0.5000 0.7785
O1A O 0.67084(14) 0.5000 0.90616(14)
C1 C 0.65157(17) 0.5000 0.84843(17)
C2 C 0.70279(18) 0.5000 0.79721(18)
C3 C 0.6858(2) 0.5000 0.7331(2)
H3 H 0.6425 0.5000 0.7215
O1A O 0.59384(14) 0.5000 0.82916(14)
C3 C 0.7669(2) 0.5000 0.8142(2)
H3 H 0.7785 0.5000 0.8575
O1A O 1.09384(14) 0.5000 0.67084(14)
Zr1 Zr 0.5000 -0.11929(2) 0.5000
O1A O 0.67084(14) -0.09384(14) 0.5000
Zr1 Zr 0.5000 1.11929(2) 0.5000
O1A O 0.32916(14) 1.09384(14) 0.5000
O1A O 0.32916(14) -0.09384(14) 0.5000
O1A O 0.67084(14) 1.09384(14) 0.5000
O1A O 0.5000 0.17084(14) 0.59384(14)
C1 C 0.5000 0.15157(17) 0.65157(17)
C2 C 0.5000 0.20279(18) 0.70279(18)
C3 C 0.5000 0.1858(2) 0.7669(2)
H3 H 0.5000 0.1425 0.7785
O1A O 0.5000 0.09384(14) 0.67084(14)
C3 C 0.5000 0.2669(2) 0.6858(2)
H3 H 0.5000 0.2785 0.6425
O1A O 0.5000 0.40616(14) 0.82916(14)
C1 C 0.5000 0.34843(17) 0.84843(17)
C2 C 0.5000 0.29721(18) 0.79721(18)
C3 C 0.5000 0.2331(2) 0.8142(2)
H3 H 0.5000 0.2215 0.8575
O1A O 0.5000 0.32916(14) 0.90616(14)
C3 C 0.5000 0.3142(2) 0.7331(2)
H3 H 0.5000 0.3575 0.7215
O1A O 0.5000 0.17084(14) 0.40616(14)
O1A O 0.5000 0.82916(14) 0.40616(14)
C1 C 0.5000 0.84843(17) 0.34843(17)
C2 C 0.5000 0.79721(18) 0.29721(18)
C3 C 0.5000 0.8142(2) 0.2331(2)
H3 H 0.5000 0.8575 0.2215
O1A O 0.5000 0.90616(14) 0.32916(14)
C3 C 0.5000 0.7331(2) 0.3142(2)
H3 H 0.5000 0.7215 0.3575
O1A O 0.5000 0.59384(14) 0.17084(14)
C1 C 0.5000 0.65157(17) 0.15157(17)
C2 C 0.5000 0.70279(18) 0.20279(18)
C3 C 0.5000 0.7669(2) 0.1858(2)
H3 H 0.5000 0.7785 0.1425
O1A O 0.5000 0.67084(14) 0.09384(14)
C3 C 0.5000 0.6858(2) 0.2669(2)
H3 H 0.5000 0.6425 0.2785
O1A O 0.5000 0.82916(14) 0.59384(14)
C1 C 0.5000 0.84843(17) 0.65157(17)
C2 C 0.5000 0.79721(18) 0.70279(18)
C3 C 0.5000 0.8142(2) 0.7669(2)
H3 H 0.5000 0.8575 0.7785
O1A O 0.5000 0.90616(14) 0.67084(14)
C3 C 0.5000 0.7331(2) 0.6858(2)
H3 H 0.5000 0.7215 0.6425
O1A O 0.5000 0.59384(14) 0.82916(14)
C1 C 0.5000 0.65157(17) 0.84843(17)
C2 C 0.5000 0.70279(18) 0.79721(18)
C3 C 0.5000 0.7669(2) 0.8142(2)
H3 H 0.5000 0.7785 0.8575
O1A O 0.5000 0.67084(14) 0.90616(14)
C3 C 0.5000 0.6858(2) 0.7331(2)
H3 H 0.5000 0.6425 0.7215
C1 C 0.5000 0.15157(17) 0.34843(17)
C2 C 0.5000 0.20279(18) 0.29721(18)
C3 C 0.5000 0.1858(2) 0.2331(2)
H3 H 0.5000 0.1425 0.2215
O1A O 0.5000 0.09384(14) 0.32916(14)
C3 C 0.5000 0.2669(2) 0.3142(2)
H3 H 0.5000 0.2785 0.3575
O1A O 0.5000 0.40616(14) 0.17084(14)
C1 C 0.5000 0.34843(17) 0.15157(17)
C2 C 0.5000 0.29721(18) 0.20279(18)
C3 C 0.5000 0.2331(2) 0.1858(2)
H3 H 0.5000 0.2215 0.1425
O1A O 0.5000 0.32916(14) 0.09384(14)
C3 C 0.5000 0.3142(2) 0.2669(2)
H3 H 0.5000 0.3575 0.2785
O1A O 0.5000 -0.09384(14) 0.67084(14)
O1A O 0.5000 1.09384(14) 0.67084(14)
O1A O 0.5000 -0.09384(14) 0.32916(14)
O1A O 0.5000 1.09384(14) 0.32916(14)
Zr1 Zr 0.5000 0.5000 -0.11929(2)
O1A O 0.67084(14) 0.5000 -0.09384(14)
Zr1 Zr 0.5000 0.5000 1.11929(2)
O1A O 0.67084(14) 0.5000 1.09384(14)
O1A O 0.32916(14) 0.5000 -0.09384(14)
O1A O 0.32916(14) 0.5000 1.09384(14)
O1A O 0.5000 0.67084(14) -0.09384(14)
O1A O 0.5000 0.32916(14) 1.09384(14)
O1A O 0.5000 0.32916(14) -0.09384(14)
O1A O 0.5000 0.67084(14) 1.09384(14)
O2B O 0.0676(2) 0.0676(2) 0.0676(2)
H2B H 0.0945 0.0945 0.0945
O2B O 0.9324(2) 0.9324(2) 0.0676(2)
H2B H 0.9055 0.9055 0.0945
O2B O 0.9324(2) 0.0676(2) 0.9324(2)
H2B H 0.9055 0.0945 0.9055
O2B O 0.0676(2) 0.9324(2) 0.9324(2)
H2B H 0.0945 0.9055 0.9055
O2B O 0.0676(2) 0.0676(2) 0.9324(2)
H2B H 0.0945 0.0945 0.9055
O2B O 0.9324(2) 0.9324(2) 0.9324(2)
H2B H 0.9055 0.9055 0.9055
O2B O 0.0676(2) 0.9324(2) 0.0676(2)
H2B H 0.0945 0.9055 0.0945
O2B O 0.9324(2) 0.0676(2) 0.0676(2)
H2B H 0.9055 0.0945 0.0945
O2B O 0.0676(2) 0.5676(2) 0.5676(2)
H2B H 0.0945 0.5945 0.5945
O2B O 0.9324(2) 0.4324(2) 0.5676(2)
H2B H 0.9055 0.4055 0.5945
O2B O 0.9324(2) 0.5676(2) 0.4324(2)
H2B H 0.9055 0.5945 0.4055
O2B O 0.0676(2) 0.4324(2) 0.4324(2)
H2B H 0.0945 0.4055 0.4055
O2B O 0.0676(2) 0.5676(2) 0.4324(2)
H2B H 0.0945 0.5945 0.4055
O2B O 0.9324(2) 0.4324(2) 0.4324(2)
H2B H 0.9055 0.4055 0.4055
O2B O 0.0676(2) 0.4324(2) 0.5676(2)
H2B H 0.0945 0.4055 0.5945
O2B O 0.9324(2) 0.5676(2) 0.5676(2)
H2B H 0.9055 0.5945 0.5945
O2B O 0.5676(2) 0.0676(2) 0.5676(2)
H2B H 0.5945 0.0945 0.5945
O2B O 0.4324(2) 0.9324(2) 0.5676(2)
H2B H 0.4055 0.9055 0.5945
O2B O 0.4324(2) 0.0676(2) 0.4324(2)
H2B H 0.4055 0.0945 0.4055
O2B O 0.5676(2) 0.9324(2) 0.4324(2)
H2B H 0.5945 0.9055 0.4055
O2B O 0.5676(2) 0.0676(2) 0.4324(2)
H2B H 0.5945 0.0945 0.4055
O2B O 0.4324(2) 0.9324(2) 0.4324(2)
H2B H 0.4055 0.9055 0.4055
O2B O 0.5676(2) 0.9324(2) 0.5676(2)
H2B H 0.5945 0.9055 0.5945
O2B O 0.4324(2) 0.0676(2) 0.5676(2)
H2B H 0.4055 0.0945 0.5945
O2B O 0.5676(2) 0.5676(2) 0.0676(2)
H2B H 0.5945 0.5945 0.0945
O2B O 0.4324(2) 0.4324(2) 0.0676(2)
H2B H 0.4055 0.4055 0.0945
O2B O 0.4324(2) 0.5676(2) 0.9324(2)
H2B H 0.4055 0.5945 0.9055
O2B O 0.5676(2) 0.4324(2) 0.9324(2)
H2B H 0.5945 0.4055 0.9055
O2B O 0.5676(2) 0.5676(2) 0.9324(2)
H2B H 0.5945 0.5945 0.9055
O2B O 0.4324(2) 0.4324(2) 0.9324(2)
H2B H 0.4055 0.4055 0.9055
O2B O 0.5676(2) 0.4324(2) 0.0676(2)
H2B H 0.5945 0.4055 0.0945
O2B O 0.4324(2) 0.5676(2) 0.0676(2)
H2B H 0.4055 0.5945 0.0945

#END
