data_image0
_cell_length_a       10.073
_cell_length_b       20.97
_cell_length_c       54.0856
_cell_angle_alpha    95.7371
_cell_angle_beta     90
_cell_angle_gamma    90

_symmetry_space_group_name_H-M    "P 1"
_symmetry_int_tables_number       1

loop_
  _symmetry_equiv_pos_as_xyz
  'x, y, z'

loop_
  _atom_site_label
  _atom_site_occupancy
  _atom_site_fract_x
  _atom_site_fract_y
  _atom_site_fract_z
  _atom_site_thermal_displace_type
  _atom_site_B_iso_or_equiv
  _atom_site_type_symbol
  La1      1.0000 0.32857  0.11468  0.75849  Biso   1.000  La
  La2      1.0000 0.67143  0.88532  0.24152  Biso   1.000  La
  La3      1.0000 0.32857  0.38532  0.24152  Biso   1.000  La
  La4      1.0000 0.67143  0.61468  0.75849  Biso   1.000  La
  La5      1.0000 0.82857  0.61468  0.25848  Biso   1.000  La
  La6      1.0000 0.17143  0.38532  0.74152  Biso   1.000  La
  La7      1.0000 0.82857  0.88532  0.74152  Biso   1.000  La
  La8      1.0000 0.17143  0.11468  0.25848  Biso   1.000  La
  La9      1.0000 0.95208  0.08041  0.72781  Biso   1.000  La
  La10     1.0000 0.04792  0.91959  0.27219  Biso   1.000  La
  La11     1.0000 0.95208  0.41959  0.27219  Biso   1.000  La
  La12     1.0000 0.04792  0.58041  0.72781  Biso   1.000  La
  La13     1.0000 0.45208  0.58041  0.22781  Biso   1.000  La
  La14     1.0000 0.54792  0.41959  0.77219  Biso   1.000  La
  La15     1.0000 0.45208  0.91959  0.77219  Biso   1.000  La
  La16     1.0000 0.54792  0.08041  0.22781  Biso   1.000  La
  Cu1      1.0000 0.05683  0.36088  0.98053  Biso   1.000  Cu
  Cu2      1.0000 0.94317  0.63912  0.01947  Biso   1.000  Cu
  Cu3      1.0000 0.05683  0.13912  0.01947  Biso   1.000  Cu
  Cu4      1.0000 0.94317  0.86088  0.98053  Biso   1.000  Cu
  Cu5      1.0000 0.55683  0.86088  0.48053  Biso   1.000  Cu
  Cu6      1.0000 0.44317  0.13912  0.51947  Biso   1.000  Cu
  Cu7      1.0000 0.55683  0.63912  0.51947  Biso   1.000  Cu
  Cu8      1.0000 0.44317  0.36088  0.48053  Biso   1.000  Cu
  Cu9      1.0000 0.93856  0.45278  0.01195  Biso   1.000  Cu
  Cu10     1.0000 0.06144  0.54722  0.98805  Biso   1.000  Cu
  Cu11     1.0000 0.93856  0.04722  0.98805  Biso   1.000  Cu
  Cu12     1.0000 0.06144  0.95278  0.01195  Biso   1.000  Cu
  Cu13     1.0000 0.43856  0.95278  0.51195  Biso   1.000  Cu
  Cu14     1.0000 0.56144  0.04722  0.48805  Biso   1.000  Cu
  Cu15     1.0000 0.43856  0.54722  0.48805  Biso   1.000  Cu
  Cu16     1.0000 0.56144  0.45278  0.51195  Biso   1.000  Cu
  Cu17     0.5000 0.95680  0.21819  0.98019  Biso   1.000  Cu
  Cu18     0.5000 0.04320  0.78181  0.01981  Biso   1.000  Cu
  Cu19     0.5000 0.95680  0.28181  0.01981  Biso   1.000  Cu
  Cu20     0.5000 0.04320  0.71819  0.98019  Biso   1.000  Cu
  Cu21     0.5000 0.45680  0.71819  0.48019  Biso   1.000  Cu
  Cu22     0.5000 0.54320  0.28181  0.51981  Biso   1.000  Cu
  Cu23     0.5000 0.45680  0.78181  0.51981  Biso   1.000  Cu
  Cu24     0.5000 0.54320  0.21819  0.48019  Biso   1.000  Cu
  Cu25     0.5000 0.97840  0.19215  0.97985  Biso   1.000  Cu
  Cu26     0.5000 0.02160  0.80785  0.02015  Biso   1.000  Cu
  Cu27     0.5000 0.97840  0.30785  0.02015  Biso   1.000  Cu
  Cu28     0.5000 0.02160  0.69215  0.97985  Biso   1.000  Cu
  Cu29     0.5000 0.47840  0.69215  0.47985  Biso   1.000  Cu
  Cu30     0.5000 0.52160  0.30785  0.52015  Biso   1.000  Cu
  Cu31     0.5000 0.47840  0.80785  0.52015  Biso   1.000  Cu
  Cu32     0.5000 0.52160  0.19215  0.47985  Biso   1.000  Cu
  Cu33     1.0000 0.52640  0.25000  0.00000  Biso   1.000  Cu
  Cu34     1.0000 0.47360  0.75000  0.00000  Biso   1.000  Cu
  Cu35     1.0000 0.02640  0.75000  0.50000  Biso   1.000  Cu
  Cu36     1.0000 0.97360  0.25000  0.50000  Biso   1.000  Cu
  I1       1.0000 0.19906  0.44981  0.00500  Biso   1.000  I
  I2       1.0000 0.80094  0.55019  0.99500  Biso   1.000  I
  I3       1.0000 0.19906  0.05019  0.99500  Biso   1.000  I
  I4       1.0000 0.80094  0.94981  0.00500  Biso   1.000  I
  I5       1.0000 0.69906  0.94981  0.50500  Biso   1.000  I
  I6       1.0000 0.30094  0.05019  0.49500  Biso   1.000  I
  I7       1.0000 0.69906  0.55019  0.49500  Biso   1.000  I
  I8       1.0000 0.30094  0.44981  0.50500  Biso   1.000  I
  I9       1.0000 0.80193  0.34713  0.99221  Biso   1.000  I
  I10      1.0000 0.19807  0.65287  0.00779  Biso   1.000  I
  I11      1.0000 0.80193  0.15287  0.00779  Biso   1.000  I
  I12      1.0000 0.19807  0.84713  0.99221  Biso   1.000  I
  I13      1.0000 0.30193  0.84713  0.49221  Biso   1.000  I
  I14      1.0000 0.69807  0.15287  0.50779  Biso   1.000  I
  I15      1.0000 0.30193  0.65287  0.50779  Biso   1.000  I
  I16      1.0000 0.69807  0.34713  0.49221  Biso   1.000  I
  I17      1.0000 0.18697  0.25000  0.00000  Biso   1.000  I
  I18      1.0000 0.81303  0.75000  0.00000  Biso   1.000  I
  I19      1.0000 0.68697  0.75000  0.50000  Biso   1.000  I
  I20      1.0000 0.31303  0.25000  0.50000  Biso   1.000  I
  C1       1.0000 0.22790  0.26802  0.78732  Biso   1.000  C
  C2       1.0000 0.77210  0.73198  0.21268  Biso   1.000  C
  C3       1.0000 0.22790  0.23198  0.21268  Biso   1.000  C
  C4       1.0000 0.77210  0.76802  0.78732  Biso   1.000  C
  C5       1.0000 0.72790  0.76802  0.28732  Biso   1.000  C
  C6       1.0000 0.27210  0.23198  0.71268  Biso   1.000  C
  C7       1.0000 0.72790  0.73198  0.71268  Biso   1.000  C
  C8       1.0000 0.27210  0.26802  0.28732  Biso   1.000  C
  C9       1.0000 0.20060  0.28417  0.81467  Biso   1.000  C
  C10      1.0000 0.79940  0.71583  0.18533  Biso   1.000  C
  C11      1.0000 0.20060  0.21583  0.18533  Biso   1.000  C
  C12      1.0000 0.79940  0.78417  0.81467  Biso   1.000  C
  C13      1.0000 0.70060  0.78417  0.31467  Biso   1.000  C
  C14      1.0000 0.29940  0.21583  0.68533  Biso   1.000  C
  C15      1.0000 0.70060  0.71583  0.68533  Biso   1.000  C
  C16      1.0000 0.29940  0.28417  0.31467  Biso   1.000  C
  C17      1.0000 0.08120  0.30959  0.82259  Biso   1.000  C
  C18      1.0000 0.91880  0.69041  0.17741  Biso   1.000  C
  C19      1.0000 0.08120  0.19041  0.17741  Biso   1.000  C
  C20      1.0000 0.91880  0.80959  0.82259  Biso   1.000  C
  C21      1.0000 0.58120  0.80959  0.32259  Biso   1.000  C
  C22      1.0000 0.41880  0.19041  0.67741  Biso   1.000  C
  C23      1.0000 0.58120  0.69041  0.67741  Biso   1.000  C
  C24      1.0000 0.41880  0.30959  0.32259  Biso   1.000  C
  H1       1.0000 0.01680  0.31790  0.81100  Biso   1.000  H
  H2       1.0000 0.98320  0.68210  0.18900  Biso   1.000  H
  H3       1.0000 0.01680  0.18210  0.18900  Biso   1.000  H
  H4       1.0000 0.98320  0.81790  0.81100  Biso   1.000  H
  H5       1.0000 0.51680  0.81790  0.31100  Biso   1.000  H
  H6       1.0000 0.48320  0.18210  0.68900  Biso   1.000  H
  H7       1.0000 0.51680  0.68210  0.68900  Biso   1.000  H
  H8       1.0000 0.48320  0.31790  0.31100  Biso   1.000  H
  C25      1.0000 0.30140  0.27587  0.83157  Biso   1.000  C
  C26      1.0000 0.69860  0.72413  0.16843  Biso   1.000  C
  C27      1.0000 0.30140  0.22413  0.16843  Biso   1.000  C
  C28      1.0000 0.69860  0.77587  0.83157  Biso   1.000  C
  C29      1.0000 0.80140  0.77587  0.33157  Biso   1.000  C
  C30      1.0000 0.19860  0.22413  0.66843  Biso   1.000  C
  C31      1.0000 0.80140  0.72413  0.66843  Biso   1.000  C
  C32      1.0000 0.19860  0.27587  0.33157  Biso   1.000  C
  H9       1.0000 0.38340  0.25970  0.82610  Biso   1.000  H
  H10      1.0000 0.61660  0.74030  0.17390  Biso   1.000  H
  H11      1.0000 0.38340  0.24030  0.17390  Biso   1.000  H
  H12      1.0000 0.61660  0.75970  0.82610  Biso   1.000  H
  H13      1.0000 0.88340  0.75970  0.32610  Biso   1.000  H
  H14      1.0000 0.11660  0.24030  0.67390  Biso   1.000  H
  H15      1.0000 0.88340  0.74030  0.67390  Biso   1.000  H
  H16      1.0000 0.11660  0.25970  0.32610  Biso   1.000  H
  C33      1.0000 0.05510  0.32330  0.84810  Biso   1.000  C
  C34      1.0000 0.94490  0.67670  0.15190  Biso   1.000  C
  C35      1.0000 0.05510  0.17670  0.15190  Biso   1.000  C
  C36      1.0000 0.94490  0.82330  0.84810  Biso   1.000  C
  C37      1.0000 0.55510  0.82330  0.34810  Biso   1.000  C
  C38      1.0000 0.44490  0.17670  0.65190  Biso   1.000  C
  C39      1.0000 0.55510  0.67670  0.65190  Biso   1.000  C
  C40      1.0000 0.44490  0.32330  0.34810  Biso   1.000  C
  H17      1.0000 0.97130  0.33750  0.85340  Biso   1.000  H
  H18      1.0000 0.02870  0.66250  0.14660  Biso   1.000  H
  H19      1.0000 0.97130  0.16250  0.14660  Biso   1.000  H
  H20      1.0000 0.02870  0.83750  0.85340  Biso   1.000  H
  H21      1.0000 0.47130  0.83750  0.35340  Biso   1.000  H
  H22      1.0000 0.52870  0.16250  0.64660  Biso   1.000  H
  H23      1.0000 0.47130  0.66250  0.64660  Biso   1.000  H
  H24      1.0000 0.52870  0.33750  0.35340  Biso   1.000  H
  C41      1.0000 0.27780  0.29217  0.85697  Biso   1.000  C
  C42      1.0000 0.72220  0.70783  0.14303  Biso   1.000  C
  C43      1.0000 0.27780  0.20783  0.14303  Biso   1.000  C
  C44      1.0000 0.72220  0.79217  0.85697  Biso   1.000  C
  C45      1.0000 0.77780  0.79217  0.35697  Biso   1.000  C
  C46      1.0000 0.22220  0.20783  0.64303  Biso   1.000  C
  C47      1.0000 0.77780  0.70783  0.64303  Biso   1.000  C
  C48      1.0000 0.22220  0.29217  0.35697  Biso   1.000  C
  H25      1.0000 0.34510  0.28730  0.86840  Biso   1.000  H
  H26      1.0000 0.65490  0.71270  0.13160  Biso   1.000  H
  H27      1.0000 0.34510  0.21270  0.13160  Biso   1.000  H
  H28      1.0000 0.65490  0.78730  0.86840  Biso   1.000  H
  H29      1.0000 0.84510  0.78730  0.36840  Biso   1.000  H
  H30      1.0000 0.15490  0.21270  0.63160  Biso   1.000  H
  H31      1.0000 0.84510  0.71270  0.63160  Biso   1.000  H
  H32      1.0000 0.15490  0.28730  0.36840  Biso   1.000  H
  C49      1.0000 0.15330  0.31581  0.86531  Biso   1.000  C
  C50      1.0000 0.84670  0.68419  0.13469  Biso   1.000  C
  C51      1.0000 0.15330  0.18419  0.13469  Biso   1.000  C
  C52      1.0000 0.84670  0.81581  0.86531  Biso   1.000  C
  C53      1.0000 0.65330  0.81581  0.36531  Biso   1.000  C
  C54      1.0000 0.34670  0.18419  0.63469  Biso   1.000  C
  C55      1.0000 0.65330  0.68419  0.63469  Biso   1.000  C
  C56      1.0000 0.34670  0.31581  0.36531  Biso   1.000  C
  C57      1.0000 0.12970  0.33039  0.89249  Biso   1.000  C
  C58      1.0000 0.87030  0.66961  0.10751  Biso   1.000  C
  C59      1.0000 0.12970  0.16961  0.10751  Biso   1.000  C
  C60      1.0000 0.87030  0.83039  0.89249  Biso   1.000  C
  C61      1.0000 0.62970  0.83039  0.39249  Biso   1.000  C
  C62      1.0000 0.37030  0.16961  0.60751  Biso   1.000  C
  C63      1.0000 0.62970  0.66961  0.60751  Biso   1.000  C
  C64      1.0000 0.37030  0.33039  0.39249  Biso   1.000  C
  C65      1.0000 0.00640  0.32858  0.90228  Biso   1.000  C
  C66      1.0000 0.99360  0.67142  0.09772  Biso   1.000  C
  C67      1.0000 0.00640  0.17142  0.09772  Biso   1.000  C
  C68      1.0000 0.99360  0.82858  0.90228  Biso   1.000  C
  C69      1.0000 0.50640  0.82858  0.40228  Biso   1.000  C
  C70      1.0000 0.49360  0.17142  0.59772  Biso   1.000  C
  C71      1.0000 0.50640  0.67142  0.59772  Biso   1.000  C
  C72      1.0000 0.49360  0.32858  0.40228  Biso   1.000  C
  H33      1.0000 0.93320  0.32040  0.89200  Biso   1.000  H
  H34      1.0000 0.06680  0.67960  0.10800  Biso   1.000  H
  H35      1.0000 0.93320  0.17960  0.10800  Biso   1.000  H
  H36      1.0000 0.06680  0.82040  0.89200  Biso   1.000  H
  H37      1.0000 0.43320  0.82040  0.39200  Biso   1.000  H
  H38      1.0000 0.56680  0.17960  0.60800  Biso   1.000  H
  H39      1.0000 0.43320  0.67960  0.60800  Biso   1.000  H
  H40      1.0000 0.56680  0.32040  0.39200  Biso   1.000  H
  C73      1.0000 0.23220  0.34614  0.90904  Biso   1.000  C
  C74      1.0000 0.76780  0.65386  0.09096  Biso   1.000  C
  C75      1.0000 0.23220  0.15386  0.09096  Biso   1.000  C
  C76      1.0000 0.76780  0.84614  0.90904  Biso   1.000  C
  C77      1.0000 0.73220  0.84614  0.40904  Biso   1.000  C
  C78      1.0000 0.26780  0.15386  0.59096  Biso   1.000  C
  C79      1.0000 0.73220  0.65386  0.59096  Biso   1.000  C
  C80      1.0000 0.26780  0.34614  0.40904  Biso   1.000  C
  H41      1.0000 0.31780  0.35040  0.90300  Biso   1.000  H
  H42      1.0000 0.68220  0.64960  0.09700  Biso   1.000  H
  H43      1.0000 0.31780  0.14960  0.09700  Biso   1.000  H
  H44      1.0000 0.68220  0.85040  0.90300  Biso   1.000  H
  H45      1.0000 0.81780  0.85040  0.40300  Biso   1.000  H
  H46      1.0000 0.18220  0.14960  0.59700  Biso   1.000  H
  H47      1.0000 0.81780  0.64960  0.59700  Biso   1.000  H
  H48      1.0000 0.18220  0.35040  0.40300  Biso   1.000  H
  C81      1.0000 0.99030  0.33897  0.92767  Biso   1.000  C
  C82      1.0000 0.00970  0.66103  0.07233  Biso   1.000  C
  C83      1.0000 0.99030  0.16103  0.07233  Biso   1.000  C
  C84      1.0000 0.00970  0.83897  0.92767  Biso   1.000  C
  C85      1.0000 0.49030  0.83897  0.42767  Biso   1.000  C
  C86      1.0000 0.50970  0.16103  0.57233  Biso   1.000  C
  C87      1.0000 0.49030  0.66103  0.57233  Biso   1.000  C
  C88      1.0000 0.50970  0.33897  0.42767  Biso   1.000  C
  H49      1.0000 0.90440  0.33600  0.93370  Biso   1.000  H
  H50      1.0000 0.09560  0.66400  0.06630  Biso   1.000  H
  H51      1.0000 0.90440  0.16400  0.06630  Biso   1.000  H
  H52      1.0000 0.09560  0.83600  0.93370  Biso   1.000  H
  H53      1.0000 0.40440  0.83600  0.43370  Biso   1.000  H
  H54      1.0000 0.59560  0.16400  0.56630  Biso   1.000  H
  H55      1.0000 0.40440  0.66400  0.56630  Biso   1.000  H
  H56      1.0000 0.59560  0.33600  0.43370  Biso   1.000  H
  C89      1.0000 0.20920  0.35575  0.93465  Biso   1.000  C
  C90      1.0000 0.79080  0.64425  0.06535  Biso   1.000  C
  C91      1.0000 0.20920  0.14425  0.06535  Biso   1.000  C
  C92      1.0000 0.79080  0.85575  0.93465  Biso   1.000  C
  C93      1.0000 0.70920  0.85575  0.43465  Biso   1.000  C
  C94      1.0000 0.29080  0.14425  0.56535  Biso   1.000  C
  C95      1.0000 0.70920  0.64425  0.56535  Biso   1.000  C
  C96      1.0000 0.29080  0.35575  0.43465  Biso   1.000  C
  H57      1.0000 0.27960  0.36450  0.94560  Biso   1.000  H
  H58      1.0000 0.72040  0.63550  0.05440  Biso   1.000  H
  H59      1.0000 0.27960  0.13550  0.05440  Biso   1.000  H
  H60      1.0000 0.72040  0.86450  0.94560  Biso   1.000  H
  H61      1.0000 0.77960  0.86450  0.44560  Biso   1.000  H
  H62      1.0000 0.22040  0.13550  0.55440  Biso   1.000  H
  H63      1.0000 0.77960  0.63550  0.55440  Biso   1.000  H
  H64      1.0000 0.22040  0.36450  0.44560  Biso   1.000  H
  C97      1.0000 0.30060  0.05912  0.70542  Biso   1.000  C
  C98      1.0000 0.69940  0.94088  0.29458  Biso   1.000  C
  C99      1.0000 0.30060  0.44088  0.29458  Biso   1.000  C
  C100     1.0000 0.69940  0.55912  0.70542  Biso   1.000  C
  C101     1.0000 0.80060  0.55912  0.20542  Biso   1.000  C
  C102     1.0000 0.19940  0.44088  0.79458  Biso   1.000  C
  C103     1.0000 0.80060  0.94088  0.79458  Biso   1.000  C
  C104     1.0000 0.19940  0.05912  0.20542  Biso   1.000  C
  C105     1.0000 0.31120  0.03925  0.67835  Biso   1.000  C
  C106     1.0000 0.68880  0.96075  0.32165  Biso   1.000  C
  C107     1.0000 0.31120  0.46075  0.32165  Biso   1.000  C
  C108     1.0000 0.68880  0.53925  0.67835  Biso   1.000  C
  C109     1.0000 0.81120  0.53925  0.17835  Biso   1.000  C
  C110     1.0000 0.18880  0.46075  0.82165  Biso   1.000  C
  C111     1.0000 0.81120  0.96075  0.82165  Biso   1.000  C
  C112     1.0000 0.18880  0.03925  0.17835  Biso   1.000  C
  C113     1.0000 0.43800  0.02262  0.66872  Biso   1.000  C
  C114     1.0000 0.56200  0.97738  0.33128  Biso   1.000  C
  C115     1.0000 0.43800  0.47738  0.33128  Biso   1.000  C
  C116     1.0000 0.56200  0.52262  0.66872  Biso   1.000  C
  C117     1.0000 0.93800  0.52262  0.16872  Biso   1.000  C
  C118     1.0000 0.06200  0.47738  0.83128  Biso   1.000  C
  C119     1.0000 0.93800  0.97738  0.83128  Biso   1.000  C
  C120     1.0000 0.06200  0.02262  0.16872  Biso   1.000  C
  H65      1.0000 0.51030  0.02070  0.67930  Biso   1.000  H
  H66      1.0000 0.48970  0.97930  0.32070  Biso   1.000  H
  H67      1.0000 0.51030  0.47930  0.32070  Biso   1.000  H
  H68      1.0000 0.48970  0.52070  0.67930  Biso   1.000  H
  H69      1.0000 0.01030  0.52070  0.17930  Biso   1.000  H
  H70      1.0000 0.98970  0.47930  0.82070  Biso   1.000  H
  H71      1.0000 0.01030  0.97930  0.82070  Biso   1.000  H
  H72      1.0000 0.98970  0.02070  0.17930  Biso   1.000  H
  C121     1.0000 0.20420  0.03973  0.66213  Biso   1.000  C
  C122     1.0000 0.79580  0.96027  0.33787  Biso   1.000  C
  C123     1.0000 0.20420  0.46027  0.33787  Biso   1.000  C
  C124     1.0000 0.79580  0.53973  0.66213  Biso   1.000  C
  C125     1.0000 0.70420  0.53973  0.16213  Biso   1.000  C
  C126     1.0000 0.29580  0.46027  0.83787  Biso   1.000  C
  C127     1.0000 0.70420  0.96027  0.83787  Biso   1.000  C
  C128     1.0000 0.29580  0.03973  0.16213  Biso   1.000  C
  H73      1.0000 0.12010  0.05040  0.66830  Biso   1.000  H
  H74      1.0000 0.87990  0.94960  0.33170  Biso   1.000  H
  H75      1.0000 0.12010  0.44960  0.33170  Biso   1.000  H
  H76      1.0000 0.87990  0.55040  0.66830  Biso   1.000  H
  H77      1.0000 0.62010  0.55040  0.16830  Biso   1.000  H
  H78      1.0000 0.37990  0.44960  0.83170  Biso   1.000  H
  H79      1.0000 0.62010  0.94960  0.83170  Biso   1.000  H
  H80      1.0000 0.37990  0.05040  0.16830  Biso   1.000  H
  C129     1.0000 0.45380  0.00935  0.64345  Biso   1.000  C
  C130     1.0000 0.54620  0.99065  0.35655  Biso   1.000  C
  C131     1.0000 0.45380  0.49065  0.35655  Biso   1.000  C
  C132     1.0000 0.54620  0.50935  0.64345  Biso   1.000  C
  C133     1.0000 0.95380  0.50935  0.14345  Biso   1.000  C
  C134     1.0000 0.04620  0.49065  0.85655  Biso   1.000  C
  C135     1.0000 0.95380  0.99065  0.85655  Biso   1.000  C
  C136     1.0000 0.04620  0.00935  0.14345  Biso   1.000  C
  H81      1.0000 0.53780  0.99930  0.63710  Biso   1.000  H
  H82      1.0000 0.46220  0.00070  0.36290  Biso   1.000  H
  H83      1.0000 0.53780  0.50070  0.36290  Biso   1.000  H
  H84      1.0000 0.46220  0.49930  0.63710  Biso   1.000  H
  H85      1.0000 0.03780  0.49930  0.13710  Biso   1.000  H
  H86      1.0000 0.96220  0.50070  0.86290  Biso   1.000  H
  H87      1.0000 0.03780  0.00070  0.86290  Biso   1.000  H
  H88      1.0000 0.96220  0.99930  0.13710  Biso   1.000  H
  C137     1.0000 0.22210  0.02454  0.63694  Biso   1.000  C
  C138     1.0000 0.77790  0.97546  0.36306  Biso   1.000  C
  C139     1.0000 0.22210  0.47546  0.36306  Biso   1.000  C
  C140     1.0000 0.77790  0.52454  0.63694  Biso   1.000  C
  C141     1.0000 0.72210  0.52454  0.13694  Biso   1.000  C
  C142     1.0000 0.27790  0.47546  0.86306  Biso   1.000  C
  C143     1.0000 0.72210  0.97546  0.86306  Biso   1.000  C
  C144     1.0000 0.27790  0.02454  0.13694  Biso   1.000  C
  H89      1.0000 0.14910  0.02380  0.62640  Biso   1.000  H
  H90      1.0000 0.85090  0.97620  0.37360  Biso   1.000  H
  H91      1.0000 0.14910  0.47620  0.37360  Biso   1.000  H
  H92      1.0000 0.85090  0.52380  0.62640  Biso   1.000  H
  H93      1.0000 0.64910  0.52380  0.12640  Biso   1.000  H
  H94      1.0000 0.35090  0.47620  0.87360  Biso   1.000  H
  H95      1.0000 0.64910  0.97620  0.87360  Biso   1.000  H
  H96      1.0000 0.35090  0.02380  0.12640  Biso   1.000  H
  C145     1.0000 0.34630  0.01043  0.62713  Biso   1.000  C
  C146     1.0000 0.65370  0.98957  0.37287  Biso   1.000  C
  C147     1.0000 0.34630  0.48957  0.37287  Biso   1.000  C
  C148     1.0000 0.65370  0.51043  0.62713  Biso   1.000  C
  C149     1.0000 0.84630  0.51043  0.12713  Biso   1.000  C
  C150     1.0000 0.15370  0.48957  0.87287  Biso   1.000  C
  C151     1.0000 0.84630  0.98957  0.87287  Biso   1.000  C
  C152     1.0000 0.15370  0.01043  0.12713  Biso   1.000  C
  C153     1.0000 0.36750  0.99648  0.60018  Biso   1.000  C
  C154     1.0000 0.63250  0.00352  0.39982  Biso   1.000  C
  C155     1.0000 0.36750  0.50352  0.39982  Biso   1.000  C
  C156     1.0000 0.63250  0.49648  0.60018  Biso   1.000  C
  C157     1.0000 0.86750  0.49648  0.10018  Biso   1.000  C
  C158     1.0000 0.13250  0.50352  0.89982  Biso   1.000  C
  C159     1.0000 0.86750  0.00352  0.89982  Biso   1.000  C
  C160     1.0000 0.13250  0.99648  0.10018  Biso   1.000  C
  C161     1.0000 0.49130  0.00147  0.58987  Biso   1.000  C
  C162     1.0000 0.50870  0.99853  0.41013  Biso   1.000  C
  C163     1.0000 0.49130  0.49853  0.41013  Biso   1.000  C
  C164     1.0000 0.50870  0.50147  0.58987  Biso   1.000  C
  C165     1.0000 0.99130  0.50147  0.08987  Biso   1.000  C
  C166     1.0000 0.00870  0.49853  0.91013  Biso   1.000  C
  C167     1.0000 0.99130  0.99853  0.91013  Biso   1.000  C
  C168     1.0000 0.00870  0.00147  0.08987  Biso   1.000  C
  H97      1.0000 0.56340  0.01470  0.59980  Biso   1.000  H
  H98      1.0000 0.43660  0.98530  0.40020  Biso   1.000  H
  H99      1.0000 0.56340  0.48530  0.40020  Biso   1.000  H
  H100     1.0000 0.43660  0.51470  0.59980  Biso   1.000  H
  H101     1.0000 0.06340  0.51470  0.09980  Biso   1.000  H
  H102     1.0000 0.93660  0.48530  0.90020  Biso   1.000  H
  H103     1.0000 0.06340  0.98530  0.90020  Biso   1.000  H
  H104     1.0000 0.93660  0.01470  0.09980  Biso   1.000  H
  C169     1.0000 0.26750  0.97789  0.58389  Biso   1.000  C
  C170     1.0000 0.73250  0.02211  0.41611  Biso   1.000  C
  C171     1.0000 0.26750  0.52211  0.41611  Biso   1.000  C
  C172     1.0000 0.73250  0.47789  0.58389  Biso   1.000  C
  C173     1.0000 0.76750  0.47789  0.08389  Biso   1.000  C
  C174     1.0000 0.23250  0.52211  0.91611  Biso   1.000  C
  C175     1.0000 0.76750  0.02211  0.91611  Biso   1.000  C
  C176     1.0000 0.23250  0.97789  0.08389  Biso   1.000  C
  H105     1.0000 0.18290  0.97240  0.59020  Biso   1.000  H
  H106     1.0000 0.81710  0.02760  0.40980  Biso   1.000  H
  H107     1.0000 0.18290  0.52760  0.40980  Biso   1.000  H
  H108     1.0000 0.81710  0.47240  0.59020  Biso   1.000  H
  H109     1.0000 0.68290  0.47240  0.09020  Biso   1.000  H
  H110     1.0000 0.31710  0.52760  0.90980  Biso   1.000  H
  H111     1.0000 0.68290  0.02760  0.90980  Biso   1.000  H
  H112     1.0000 0.31710  0.97240  0.09020  Biso   1.000  H
  C177     1.0000 0.50810  0.98636  0.56446  Biso   1.000  C
  C178     1.0000 0.49190  0.01364  0.43554  Biso   1.000  C
  C179     1.0000 0.50810  0.51364  0.43554  Biso   1.000  C
  C180     1.0000 0.49190  0.48636  0.56446  Biso   1.000  C
  C181     1.0000 0.00810  0.48636  0.06446  Biso   1.000  C
  C182     1.0000 0.99190  0.51364  0.93554  Biso   1.000  C
  C183     1.0000 0.00810  0.01364  0.93554  Biso   1.000  C
  C184     1.0000 0.99190  0.98636  0.06446  Biso   1.000  C
  H113     1.0000 0.59330  0.98880  0.55800  Biso   1.000  H
  H114     1.0000 0.40670  0.01120  0.44200  Biso   1.000  H
  H115     1.0000 0.59330  0.51120  0.44200  Biso   1.000  H
  H116     1.0000 0.40670  0.48880  0.55800  Biso   1.000  H
  H117     1.0000 0.09330  0.48880  0.05800  Biso   1.000  H
  H118     1.0000 0.90670  0.51120  0.94200  Biso   1.000  H
  H119     1.0000 0.09330  0.01120  0.94200  Biso   1.000  H
  H120     1.0000 0.90670  0.98880  0.05800  Biso   1.000  H
  C185     1.0000 0.28620  0.96700  0.55890  Biso   1.000  C
  C186     1.0000 0.71380  0.03300  0.44110  Biso   1.000  C
  C187     1.0000 0.28620  0.53300  0.44110  Biso   1.000  C
  C188     1.0000 0.71380  0.46700  0.55890  Biso   1.000  C
  C189     1.0000 0.78620  0.46700  0.05890  Biso   1.000  C
  C190     1.0000 0.21380  0.53300  0.94110  Biso   1.000  C
  C191     1.0000 0.78620  0.03300  0.94110  Biso   1.000  C
  C192     1.0000 0.21380  0.96700  0.05890  Biso   1.000  C
  H121     1.0000 0.21340  0.95830  0.54860  Biso   1.000  H
  H122     1.0000 0.78660  0.04170  0.45140  Biso   1.000  H
  H123     1.0000 0.21340  0.54170  0.45140  Biso   1.000  H
  H124     1.0000 0.78660  0.45830  0.54860  Biso   1.000  H
  H125     1.0000 0.71340  0.45830  0.04860  Biso   1.000  H
  H126     1.0000 0.28660  0.54170  0.95140  Biso   1.000  H
  H127     1.0000 0.71340  0.04170  0.95140  Biso   1.000  H
  H128     1.0000 0.28660  0.95830  0.04860  Biso   1.000  H
  C193     1.0000 0.98570  0.11379  0.78399  Biso   1.000  C
  C194     1.0000 0.01430  0.88621  0.21601  Biso   1.000  C
  C195     1.0000 0.98570  0.38621  0.21601  Biso   1.000  C
  C196     1.0000 0.01430  0.61379  0.78399  Biso   1.000  C
  C197     1.0000 0.48570  0.61379  0.28399  Biso   1.000  C
  C198     1.0000 0.51430  0.38621  0.71601  Biso   1.000  C
  C199     1.0000 0.48570  0.88621  0.71601  Biso   1.000  C
  C200     1.0000 0.51430  0.11379  0.28399  Biso   1.000  C
  C201     1.0000 0.98530  0.12752  0.81142  Biso   1.000  C
  C202     1.0000 0.01470  0.87248  0.18858  Biso   1.000  C
  C203     1.0000 0.98530  0.37248  0.18858  Biso   1.000  C
  C204     1.0000 0.01470  0.62752  0.81142  Biso   1.000  C
  C205     1.0000 0.48530  0.62752  0.31142  Biso   1.000  C
  C206     1.0000 0.51470  0.37248  0.68858  Biso   1.000  C
  C207     1.0000 0.48530  0.87248  0.68858  Biso   1.000  C
  C208     1.0000 0.51470  0.12752  0.31142  Biso   1.000  C
  C209     1.0000 0.10330  0.13728  0.82528  Biso   1.000  C
  C210     1.0000 0.89670  0.86272  0.17472  Biso   1.000  C
  C211     1.0000 0.10330  0.36272  0.17472  Biso   1.000  C
  C212     1.0000 0.89670  0.63728  0.82528  Biso   1.000  C
  C213     1.0000 0.60330  0.63728  0.32528  Biso   1.000  C
  C214     1.0000 0.39670  0.36272  0.67472  Biso   1.000  C
  C215     1.0000 0.60330  0.86272  0.67472  Biso   1.000  C
  C216     1.0000 0.39670  0.13728  0.32528  Biso   1.000  C
  H129     1.0000 0.18460  0.13590  0.81710  Biso   1.000  H
  H130     1.0000 0.81540  0.86410  0.18290  Biso   1.000  H
  H131     1.0000 0.18460  0.36410  0.18290  Biso   1.000  H
  H132     1.0000 0.81540  0.63590  0.81710  Biso   1.000  H
  H133     1.0000 0.68460  0.63590  0.31710  Biso   1.000  H
  H134     1.0000 0.31540  0.36410  0.68290  Biso   1.000  H
  H135     1.0000 0.68460  0.86410  0.68290  Biso   1.000  H
  H136     1.0000 0.31540  0.13590  0.31710  Biso   1.000  H
  C217     1.0000 0.86560  0.13188  0.82398  Biso   1.000  C
  C218     1.0000 0.13440  0.86812  0.17602  Biso   1.000  C
  C219     1.0000 0.86560  0.36812  0.17602  Biso   1.000  C
  C220     1.0000 0.13440  0.63188  0.82398  Biso   1.000  C
  C221     1.0000 0.36560  0.63188  0.32398  Biso   1.000  C
  C222     1.0000 0.63440  0.36812  0.67602  Biso   1.000  C
  C223     1.0000 0.36560  0.86812  0.67602  Biso   1.000  C
  C224     1.0000 0.63440  0.13188  0.32398  Biso   1.000  C
  H137     1.0000 0.78700  0.12650  0.81500  Biso   1.000  H
  H138     1.0000 0.21300  0.87350  0.18500  Biso   1.000  H
  H139     1.0000 0.78700  0.37350  0.18500  Biso   1.000  H
  H140     1.0000 0.21300  0.62650  0.81500  Biso   1.000  H
  H141     1.0000 0.28700  0.62650  0.31500  Biso   1.000  H
  H142     1.0000 0.71300  0.37350  0.68500  Biso   1.000  H
  H143     1.0000 0.28700  0.87350  0.68500  Biso   1.000  H
  H144     1.0000 0.71300  0.12650  0.31500  Biso   1.000  H
  C225     1.0000 0.09990  0.14917  0.85117  Biso   1.000  C
  C226     1.0000 0.90010  0.85083  0.14883  Biso   1.000  C
  C227     1.0000 0.09990  0.35083  0.14883  Biso   1.000  C
  C228     1.0000 0.90010  0.64917  0.85117  Biso   1.000  C
  C229     1.0000 0.59990  0.64917  0.35117  Biso   1.000  C
  C230     1.0000 0.40010  0.35083  0.64883  Biso   1.000  C
  C231     1.0000 0.59990  0.85083  0.64883  Biso   1.000  C
  C232     1.0000 0.40010  0.14917  0.35117  Biso   1.000  C
  H145     1.0000 0.17890  0.15360  0.86010  Biso   1.000  H
  H146     1.0000 0.82110  0.84640  0.13990  Biso   1.000  H
  H147     1.0000 0.17890  0.34640  0.13990  Biso   1.000  H
  H148     1.0000 0.82110  0.65360  0.86010  Biso   1.000  H
  H149     1.0000 0.67890  0.65360  0.36010  Biso   1.000  H
  H150     1.0000 0.32110  0.34640  0.63990  Biso   1.000  H
  H151     1.0000 0.67890  0.84640  0.63990  Biso   1.000  H
  H152     1.0000 0.32110  0.15360  0.36010  Biso   1.000  H
  C233     1.0000 0.85980  0.14407  0.84977  Biso   1.000  C
  C234     1.0000 0.14020  0.85593  0.15023  Biso   1.000  C
  C235     1.0000 0.85980  0.35593  0.15023  Biso   1.000  C
  C236     1.0000 0.14020  0.64407  0.84977  Biso   1.000  C
  C237     1.0000 0.35980  0.64407  0.34977  Biso   1.000  C
  C238     1.0000 0.64020  0.35593  0.65023  Biso   1.000  C
  C239     1.0000 0.35980  0.85593  0.65023  Biso   1.000  C
  C240     1.0000 0.64020  0.14407  0.34977  Biso   1.000  C
  H153     1.0000 0.77820  0.14540  0.85780  Biso   1.000  H
  H154     1.0000 0.22180  0.85460  0.14220  Biso   1.000  H
  H155     1.0000 0.77820  0.35460  0.14220  Biso   1.000  H
  H156     1.0000 0.22180  0.64540  0.85780  Biso   1.000  H
  H157     1.0000 0.27820  0.64540  0.35780  Biso   1.000  H
  H158     1.0000 0.72180  0.35460  0.64220  Biso   1.000  H
  H159     1.0000 0.27820  0.85460  0.64220  Biso   1.000  H
  H160     1.0000 0.72180  0.14540  0.35780  Biso   1.000  H
  C241     1.0000 0.97910  0.15441  0.86371  Biso   1.000  C
  C242     1.0000 0.02090  0.84559  0.13629  Biso   1.000  C
  C243     1.0000 0.97910  0.34559  0.13629  Biso   1.000  C
  C244     1.0000 0.02090  0.65441  0.86371  Biso   1.000  C
  C245     1.0000 0.47910  0.65441  0.36371  Biso   1.000  C
  C246     1.0000 0.52090  0.34559  0.63629  Biso   1.000  C
  C247     1.0000 0.47910  0.84559  0.63629  Biso   1.000  C
  C248     1.0000 0.52090  0.15441  0.36371  Biso   1.000  C
  C249     1.0000 0.97600  0.16659  0.89109  Biso   1.000  C
  C250     1.0000 0.02400  0.83341  0.10891  Biso   1.000  C
  C251     1.0000 0.97600  0.33341  0.10891  Biso   1.000  C
  C252     1.0000 0.02400  0.66659  0.89109  Biso   1.000  C
  C253     1.0000 0.47600  0.66659  0.39109  Biso   1.000  C
  C254     1.0000 0.52400  0.33341  0.60891  Biso   1.000  C
  C255     1.0000 0.47600  0.83341  0.60891  Biso   1.000  C
  C256     1.0000 0.52400  0.16659  0.39109  Biso   1.000  C
  C257     1.0000 0.08620  0.16645  0.90535  Biso   1.000  C
  C258     1.0000 0.91380  0.83355  0.09465  Biso   1.000  C
  C259     1.0000 0.08620  0.33355  0.09465  Biso   1.000  C
  C260     1.0000 0.91380  0.66645  0.90535  Biso   1.000  C
  C261     1.0000 0.58620  0.66645  0.40535  Biso   1.000  C
  C262     1.0000 0.41380  0.33355  0.59465  Biso   1.000  C
  C263     1.0000 0.58620  0.83355  0.59465  Biso   1.000  C
  C264     1.0000 0.41380  0.16645  0.40535  Biso   1.000  C
  H161     1.0000 0.16780  0.15750  0.89770  Biso   1.000  H
  H162     1.0000 0.83220  0.84250  0.10230  Biso   1.000  H
  H163     1.0000 0.16780  0.34250  0.10230  Biso   1.000  H
  H164     1.0000 0.83220  0.65750  0.89770  Biso   1.000  H
  H165     1.0000 0.66780  0.65750  0.39770  Biso   1.000  H
  H166     1.0000 0.33220  0.34250  0.60230  Biso   1.000  H
  H167     1.0000 0.66780  0.84250  0.60230  Biso   1.000  H
  H168     1.0000 0.33220  0.15750  0.39770  Biso   1.000  H
  C265     1.0000 0.85900  0.17919  0.90439  Biso   1.000  C
  C266     1.0000 0.14100  0.82081  0.09561  Biso   1.000  C
  C267     1.0000 0.85900  0.32081  0.09561  Biso   1.000  C
  C268     1.0000 0.14100  0.67919  0.90439  Biso   1.000  C
  C269     1.0000 0.35900  0.67919  0.40439  Biso   1.000  C
  C270     1.0000 0.64100  0.32081  0.59561  Biso   1.000  C
  C271     1.0000 0.35900  0.82081  0.59561  Biso   1.000  C
  C272     1.0000 0.64100  0.17919  0.40439  Biso   1.000  C
  H169     1.0000 0.77820  0.18060  0.89610  Biso   1.000  H
  H170     1.0000 0.22180  0.81940  0.10390  Biso   1.000  H
  H171     1.0000 0.77820  0.31940  0.10390  Biso   1.000  H
  H172     1.0000 0.22180  0.68060  0.89610  Biso   1.000  H
  H173     1.0000 0.27820  0.68060  0.39610  Biso   1.000  H
  H174     1.0000 0.72180  0.31940  0.60390  Biso   1.000  H
  H175     1.0000 0.27820  0.81940  0.60390  Biso   1.000  H
  H176     1.0000 0.72180  0.18060  0.39610  Biso   1.000  H
  C273     1.0000 0.08160  0.17932  0.93112  Biso   1.000  C
  C274     1.0000 0.91840  0.82068  0.06888  Biso   1.000  C
  C275     1.0000 0.08160  0.32068  0.06888  Biso   1.000  C
  C276     1.0000 0.91840  0.67932  0.93112  Biso   1.000  C
  C277     1.0000 0.58160  0.67932  0.43112  Biso   1.000  C
  C278     1.0000 0.41840  0.32068  0.56888  Biso   1.000  C
  C279     1.0000 0.58160  0.82068  0.56888  Biso   1.000  C
  C280     1.0000 0.41840  0.17932  0.43112  Biso   1.000  C
  H177     1.0000 0.16080  0.18010  0.94000  Biso   1.000  H
  H178     1.0000 0.83920  0.81990  0.06000  Biso   1.000  H
  H179     1.0000 0.16080  0.31990  0.06000  Biso   1.000  H
  H180     1.0000 0.83920  0.68010  0.94000  Biso   1.000  H
  H181     1.0000 0.66080  0.68010  0.44000  Biso   1.000  H
  H182     1.0000 0.33920  0.31990  0.56000  Biso   1.000  H
  H183     1.0000 0.66080  0.81990  0.56000  Biso   1.000  H
  H184     1.0000 0.33920  0.18010  0.44000  Biso   1.000  H
  C281     1.0000 0.86410  0.18949  0.93009  Biso   1.000  C
  C282     1.0000 0.13590  0.81051  0.06991  Biso   1.000  C
  C283     1.0000 0.86410  0.31051  0.06991  Biso   1.000  C
  C284     1.0000 0.13590  0.68949  0.93009  Biso   1.000  C
  C285     1.0000 0.36410  0.68949  0.43009  Biso   1.000  C
  C286     1.0000 0.63590  0.31051  0.56991  Biso   1.000  C
  C287     1.0000 0.36410  0.81051  0.56991  Biso   1.000  C
  C288     1.0000 0.63590  0.18949  0.43009  Biso   1.000  C
  H185     1.0000 0.78380  0.19630  0.93840  Biso   1.000  H
  H186     1.0000 0.21620  0.80370  0.06160  Biso   1.000  H
  H187     1.0000 0.78380  0.30370  0.06160  Biso   1.000  H
  H188     1.0000 0.21620  0.69630  0.93840  Biso   1.000  H
  H189     1.0000 0.28380  0.69630  0.43840  Biso   1.000  H
  H190     1.0000 0.71620  0.30370  0.56160  Biso   1.000  H
  H191     1.0000 0.28380  0.80370  0.56160  Biso   1.000  H
  H192     1.0000 0.71620  0.19630  0.43840  Biso   1.000  H
  C289     1.0000 0.41010  0.05190  0.81530  Biso   1.000  C
  C290     1.0000 0.58990  0.94810  0.18470  Biso   1.000  C
  C291     1.0000 0.41010  0.44810  0.18470  Biso   1.000  C
  C292     1.0000 0.58990  0.55190  0.81530  Biso   1.000  C
  C293     1.0000 0.91010  0.55190  0.31530  Biso   1.000  C
  C294     1.0000 0.08990  0.44810  0.68470  Biso   1.000  C
  C295     1.0000 0.91010  0.94810  0.68470  Biso   1.000  C
  C296     1.0000 0.08990  0.05190  0.31530  Biso   1.000  C
  C297     1.0000 0.42760  0.07796  0.84166  Biso   1.000  C
  C298     1.0000 0.57240  0.92204  0.15834  Biso   1.000  C
  C299     1.0000 0.42760  0.42204  0.15834  Biso   1.000  C
  C300     1.0000 0.57240  0.57796  0.84166  Biso   1.000  C
  C301     1.0000 0.92760  0.57796  0.34166  Biso   1.000  C
  C302     1.0000 0.07240  0.42204  0.65834  Biso   1.000  C
  C303     1.0000 0.92760  0.92204  0.65834  Biso   1.000  C
  C304     1.0000 0.07240  0.07796  0.34166  Biso   1.000  C
  C305     1.0000 0.38930  0.04393  0.86123  Biso   1.000  C
  C306     1.0000 0.61070  0.95607  0.13877  Biso   1.000  C
  C307     1.0000 0.38930  0.45607  0.13877  Biso   1.000  C
  C308     1.0000 0.61070  0.54393  0.86123  Biso   1.000  C
  C309     1.0000 0.88930  0.54393  0.36123  Biso   1.000  C
  C310     1.0000 0.11070  0.45607  0.63877  Biso   1.000  C
  C311     1.0000 0.88930  0.95607  0.63877  Biso   1.000  C
  C312     1.0000 0.11070  0.04393  0.36123  Biso   1.000  C
  H193     1.0000 0.35370  0.00310  0.85790  Biso   1.000  H
  H194     1.0000 0.64630  0.99690  0.14210  Biso   1.000  H
  H195     1.0000 0.35370  0.49690  0.14210  Biso   1.000  H
  H196     1.0000 0.64630  0.50310  0.85790  Biso   1.000  H
  H197     1.0000 0.85370  0.50310  0.35790  Biso   1.000  H
  H198     1.0000 0.14630  0.49690  0.64210  Biso   1.000  H
  H199     1.0000 0.85370  0.99690  0.64210  Biso   1.000  H
  H200     1.0000 0.14630  0.00310  0.35790  Biso   1.000  H
  C313     1.0000 0.48140  0.13819  0.84749  Biso   1.000  C
  C314     1.0000 0.51860  0.86181  0.15251  Biso   1.000  C
  C315     1.0000 0.48140  0.36181  0.15251  Biso   1.000  C
  C316     1.0000 0.51860  0.63819  0.84749  Biso   1.000  C
  C317     1.0000 0.98140  0.63819  0.34749  Biso   1.000  C
  C318     1.0000 0.01860  0.36181  0.65251  Biso   1.000  C
  C319     1.0000 0.98140  0.86181  0.65251  Biso   1.000  C
  C320     1.0000 0.01860  0.13819  0.34749  Biso   1.000  C
  H201     1.0000 0.50680  0.16250  0.83480  Biso   1.000  H
  H202     1.0000 0.49320  0.83750  0.16520  Biso   1.000  H
  H203     1.0000 0.50680  0.33750  0.16520  Biso   1.000  H
  H204     1.0000 0.49320  0.66250  0.83480  Biso   1.000  H
  H205     1.0000 0.00680  0.66250  0.33480  Biso   1.000  H
  H206     1.0000 0.99320  0.33750  0.66520  Biso   1.000  H
  H207     1.0000 0.00680  0.83750  0.66520  Biso   1.000  H
  H208     1.0000 0.99320  0.16250  0.33480  Biso   1.000  H
  C321     1.0000 0.40340  0.06989  0.88539  Biso   1.000  C
  C322     1.0000 0.59660  0.93011  0.11461  Biso   1.000  C
  C323     1.0000 0.40340  0.43011  0.11461  Biso   1.000  C
  C324     1.0000 0.59660  0.56989  0.88539  Biso   1.000  C
  C325     1.0000 0.90340  0.56989  0.38539  Biso   1.000  C
  C326     1.0000 0.09660  0.43011  0.61461  Biso   1.000  C
  C327     1.0000 0.90340  0.93011  0.61461  Biso   1.000  C
  C328     1.0000 0.09660  0.06989  0.38539  Biso   1.000  C
  H209     1.0000 0.37470  0.04660  0.89810  Biso   1.000  H
  H210     1.0000 0.62530  0.95340  0.10190  Biso   1.000  H
  H211     1.0000 0.37470  0.45340  0.10190  Biso   1.000  H
  H212     1.0000 0.62530  0.54660  0.89810  Biso   1.000  H
  H213     1.0000 0.87470  0.54660  0.39810  Biso   1.000  H
  H214     1.0000 0.12530  0.45340  0.60190  Biso   1.000  H
  H215     1.0000 0.87470  0.95340  0.60190  Biso   1.000  H
  H216     1.0000 0.12530  0.04660  0.39810  Biso   1.000  H
  C329     1.0000 0.49780  0.16257  0.87207  Biso   1.000  C
  C330     1.0000 0.50220  0.83743  0.12793  Biso   1.000  C
  C331     1.0000 0.49780  0.33743  0.12793  Biso   1.000  C
  C332     1.0000 0.50220  0.66257  0.87207  Biso   1.000  C
  C333     1.0000 0.99780  0.66257  0.37207  Biso   1.000  C
  C334     1.0000 0.00220  0.33743  0.62793  Biso   1.000  C
  C335     1.0000 0.99780  0.83743  0.62793  Biso   1.000  C
  C336     1.0000 0.00220  0.16257  0.37207  Biso   1.000  C
  H217     1.0000 0.53650  0.20270  0.87560  Biso   1.000  H
  H218     1.0000 0.46350  0.79730  0.12440  Biso   1.000  H
  H219     1.0000 0.53650  0.29730  0.12440  Biso   1.000  H
  H220     1.0000 0.46350  0.70270  0.87560  Biso   1.000  H
  H221     1.0000 0.03650  0.70270  0.37560  Biso   1.000  H
  H222     1.0000 0.96350  0.29730  0.62440  Biso   1.000  H
  H223     1.0000 0.03650  0.79730  0.62440  Biso   1.000  H
  H224     1.0000 0.96350  0.20270  0.37560  Biso   1.000  H
  C337     1.0000 0.45840  0.12894  0.89124  Biso   1.000  C
  C338     1.0000 0.54160  0.87106  0.10876  Biso   1.000  C
  C339     1.0000 0.45840  0.37106  0.10876  Biso   1.000  C
  C340     1.0000 0.54160  0.62894  0.89124  Biso   1.000  C
  C341     1.0000 0.95840  0.62894  0.39124  Biso   1.000  C
  C342     1.0000 0.04160  0.37106  0.60876  Biso   1.000  C
  C343     1.0000 0.95840  0.87106  0.60876  Biso   1.000  C
  C344     1.0000 0.04160  0.12894  0.39124  Biso   1.000  C
  C345     1.0000 0.47500  0.15849  0.91779  Biso   1.000  C
  C346     1.0000 0.52500  0.84151  0.08221  Biso   1.000  C
  C347     1.0000 0.47500  0.34151  0.08221  Biso   1.000  C
  C348     1.0000 0.52500  0.65849  0.91779  Biso   1.000  C
  C349     1.0000 0.97500  0.65849  0.41779  Biso   1.000  C
  C350     1.0000 0.02500  0.34151  0.58221  Biso   1.000  C
  C351     1.0000 0.97500  0.84151  0.58221  Biso   1.000  C
  C352     1.0000 0.02500  0.15849  0.41779  Biso   1.000  C
  C353     1.0000 0.46450  0.12015  0.93765  Biso   1.000  C
  C354     1.0000 0.53550  0.87985  0.06235  Biso   1.000  C
  C355     1.0000 0.46450  0.37985  0.06235  Biso   1.000  C
  C356     1.0000 0.53550  0.62015  0.93765  Biso   1.000  C
  C357     1.0000 0.96450  0.62015  0.43765  Biso   1.000  C
  C358     1.0000 0.03550  0.37985  0.56235  Biso   1.000  C
  C359     1.0000 0.96450  0.87985  0.56235  Biso   1.000  C
  C360     1.0000 0.03550  0.12015  0.43765  Biso   1.000  C
  H225     1.0000 0.44480  0.07670  0.93480  Biso   1.000  H
  H226     1.0000 0.55520  0.92330  0.06520  Biso   1.000  H
  H227     1.0000 0.44480  0.42330  0.06520  Biso   1.000  H
  H228     1.0000 0.55520  0.57670  0.93480  Biso   1.000  H
  H229     1.0000 0.94480  0.57670  0.43480  Biso   1.000  H
  H230     1.0000 0.05520  0.42330  0.56520  Biso   1.000  H
  H231     1.0000 0.94480  0.92330  0.56520  Biso   1.000  H
  H232     1.0000 0.05520  0.07670  0.43480  Biso   1.000  H
  C361     1.0000 0.49710  0.22192  0.92352  Biso   1.000  C
  C362     1.0000 0.50290  0.77808  0.07648  Biso   1.000  C
  C363     1.0000 0.49710  0.27808  0.07648  Biso   1.000  C
  C364     1.0000 0.50290  0.72192  0.92352  Biso   1.000  C
  C365     1.0000 0.99710  0.72192  0.42352  Biso   1.000  C
  C366     1.0000 0.00290  0.27808  0.57648  Biso   1.000  C
  C367     1.0000 0.99710  0.77808  0.57648  Biso   1.000  C
  C368     1.0000 0.00290  0.22192  0.42352  Biso   1.000  C
  H233     1.0000 0.49630  0.24900  0.91090  Biso   1.000  H
  H234     1.0000 0.50370  0.75100  0.08910  Biso   1.000  H
  H235     1.0000 0.49630  0.25100  0.08910  Biso   1.000  H
  H236     1.0000 0.50370  0.74900  0.91090  Biso   1.000  H
  H237     1.0000 0.99630  0.74900  0.41090  Biso   1.000  H
  H238     1.0000 0.00370  0.25100  0.58910  Biso   1.000  H
  H239     1.0000 0.99630  0.75100  0.58910  Biso   1.000  H
  H240     1.0000 0.00370  0.24900  0.41090  Biso   1.000  H
  C369     1.0000 0.48460  0.14947  0.96167  Biso   1.000  C
  C370     1.0000 0.51540  0.85053  0.03833  Biso   1.000  C
  C371     1.0000 0.48460  0.35053  0.03833  Biso   1.000  C
  C372     1.0000 0.51540  0.64947  0.96167  Biso   1.000  C
  C373     1.0000 0.98460  0.64947  0.46167  Biso   1.000  C
  C374     1.0000 0.01540  0.35053  0.53833  Biso   1.000  C
  C375     1.0000 0.98460  0.85053  0.53833  Biso   1.000  C
  C376     1.0000 0.01540  0.14947  0.46167  Biso   1.000  C
  H241     1.0000 0.47760  0.12430  0.97480  Biso   1.000  H
  H242     1.0000 0.52240  0.87570  0.02520  Biso   1.000  H
  H243     1.0000 0.47760  0.37570  0.02520  Biso   1.000  H
  H244     1.0000 0.52240  0.62430  0.97480  Biso   1.000  H
  H245     1.0000 0.97760  0.62430  0.47480  Biso   1.000  H
  H246     1.0000 0.02240  0.37570  0.52520  Biso   1.000  H
  H247     1.0000 0.97760  0.87570  0.52520  Biso   1.000  H
  H248     1.0000 0.02240  0.12430  0.47480  Biso   1.000  H
  C377     1.0000 0.52090  0.24750  0.94780  Biso   1.000  C
  C378     1.0000 0.47910  0.75250  0.05220  Biso   1.000  C
  C379     1.0000 0.52090  0.25250  0.05220  Biso   1.000  C
  C380     1.0000 0.47910  0.74750  0.94780  Biso   1.000  C
  C381     1.0000 0.02090  0.74750  0.44780  Biso   1.000  C
  C382     1.0000 0.97910  0.25250  0.55220  Biso   1.000  C
  C383     1.0000 0.02090  0.75250  0.55220  Biso   1.000  C
  C384     1.0000 0.97910  0.24750  0.44780  Biso   1.000  C
  H249     1.0000 0.54250  0.29070  0.95080  Biso   1.000  H
  H250     1.0000 0.45750  0.70930  0.04920  Biso   1.000  H
  H251     1.0000 0.54250  0.20930  0.04920  Biso   1.000  H
  H252     1.0000 0.45750  0.79070  0.95080  Biso   1.000  H
  H253     1.0000 0.04250  0.79070  0.45080  Biso   1.000  H
  H254     1.0000 0.95750  0.20930  0.54920  Biso   1.000  H
  H255     1.0000 0.04250  0.70930  0.54920  Biso   1.000  H
  H256     1.0000 0.95750  0.29070  0.45080  Biso   1.000  H
  C385     1.0000 0.64530  0.04034  0.74754  Biso   1.000  C
  C386     1.0000 0.35470  0.95966  0.25246  Biso   1.000  C
  C387     1.0000 0.64530  0.45966  0.25246  Biso   1.000  C
  C388     1.0000 0.35470  0.54034  0.74754  Biso   1.000  C
  C389     1.0000 0.14530  0.54034  0.24754  Biso   1.000  C
  C390     1.0000 0.85470  0.45966  0.75246  Biso   1.000  C
  C391     1.0000 0.14530  0.95966  0.75246  Biso   1.000  C
  C392     1.0000 0.85470  0.04034  0.24754  Biso   1.000  C
  C393     1.0000 0.64600  0.11204  0.74324  Biso   1.000  C
  C394     1.0000 0.35400  0.88796  0.25676  Biso   1.000  C
  C395     1.0000 0.64600  0.38796  0.25676  Biso   1.000  C
  C396     1.0000 0.35400  0.61204  0.74324  Biso   1.000  C
  C397     1.0000 0.14600  0.61204  0.24324  Biso   1.000  C
  C398     1.0000 0.85400  0.38796  0.75676  Biso   1.000  C
  C399     1.0000 0.14600  0.88796  0.75676  Biso   1.000  C
  C400     1.0000 0.85400  0.11204  0.24324  Biso   1.000  C
  O1       1.0000 0.30750  0.22107  0.78227  Biso   1.000  O
  O2       1.0000 0.69250  0.77893  0.21773  Biso   1.000  O
  O3       1.0000 0.30750  0.27893  0.21773  Biso   1.000  O
  O4       1.0000 0.69250  0.72107  0.78227  Biso   1.000  O
  O5       1.0000 0.80750  0.72107  0.28227  Biso   1.000  O
  O6       1.0000 0.19250  0.27893  0.71773  Biso   1.000  O
  O7       1.0000 0.80750  0.77893  0.71773  Biso   1.000  O
  O8       1.0000 0.19250  0.22107  0.28227  Biso   1.000  O
  O9       1.0000 0.17400  0.29987  0.77227  Biso   1.000  O
  O10      1.0000 0.82600  0.70013  0.22773  Biso   1.000  O
  O11      1.0000 0.17400  0.20013  0.22773  Biso   1.000  O
  O12      1.0000 0.82600  0.79987  0.77227  Biso   1.000  O
  O13      1.0000 0.67400  0.79987  0.27227  Biso   1.000  O
  O14      1.0000 0.32600  0.20013  0.72773  Biso   1.000  O
  O15      1.0000 0.67400  0.70013  0.72773  Biso   1.000  O
  O16      1.0000 0.32600  0.29987  0.27227  Biso   1.000  O
  O17      1.0000 0.40290  0.05912  0.71822  Biso   1.000  O
  O18      1.0000 0.59710  0.94088  0.28178  Biso   1.000  O
  O19      1.0000 0.40290  0.44088  0.28178  Biso   1.000  O
  O20      1.0000 0.59710  0.55912  0.71822  Biso   1.000  O
  O21      1.0000 0.90290  0.55912  0.21822  Biso   1.000  O
  O22      1.0000 0.09710  0.44088  0.78178  Biso   1.000  O
  O23      1.0000 0.90290  0.94088  0.78178  Biso   1.000  O
  O24      1.0000 0.09710  0.05912  0.21822  Biso   1.000  O
  O25      1.0000 0.18790  0.07583  0.71533  Biso   1.000  O
  O26      1.0000 0.81210  0.92417  0.28467  Biso   1.000  O
  O27      1.0000 0.18790  0.42417  0.28467  Biso   1.000  O
  O28      1.0000 0.81210  0.57583  0.71533  Biso   1.000  O
  O29      1.0000 0.68790  0.57583  0.21533  Biso   1.000  O
  O30      1.0000 0.31210  0.42417  0.78467  Biso   1.000  O
  O31      1.0000 0.68790  0.92417  0.78467  Biso   1.000  O
  O32      1.0000 0.31210  0.07583  0.21533  Biso   1.000  O
  O33      1.0000 0.09770  0.11111  0.77211  Biso   1.000  O
  O34      1.0000 0.90230  0.88889  0.22789  Biso   1.000  O
  O35      1.0000 0.09770  0.38889  0.22789  Biso   1.000  O
  O36      1.0000 0.90230  0.61111  0.77211  Biso   1.000  O
  O37      1.0000 0.59770  0.61111  0.27211  Biso   1.000  O
  O38      1.0000 0.40230  0.38889  0.72789  Biso   1.000  O
  O39      1.0000 0.59770  0.88889  0.72789  Biso   1.000  O
  O40      1.0000 0.40230  0.11111  0.27211  Biso   1.000  O
  O41      1.0000 0.88040  0.10466  0.77306  Biso   1.000  O
  O42      1.0000 0.11960  0.89534  0.22694  Biso   1.000  O
  O43      1.0000 0.88040  0.39534  0.22694  Biso   1.000  O
  O44      1.0000 0.11960  0.60466  0.77306  Biso   1.000  O
  O45      1.0000 0.38040  0.60466  0.27306  Biso   1.000  O
  O46      1.0000 0.61960  0.39534  0.72694  Biso   1.000  O
  O47      1.0000 0.38040  0.89534  0.72694  Biso   1.000  O
  O48      1.0000 0.61960  0.10466  0.27306  Biso   1.000  O
  O49      1.0000 0.40800  0.99248  0.80998  Biso   1.000  O
  O50      1.0000 0.59200  0.00752  0.19002  Biso   1.000  O
  O51      1.0000 0.40800  0.50752  0.19002  Biso   1.000  O
  O52      1.0000 0.59200  0.49248  0.80998  Biso   1.000  O
  O53      1.0000 0.90800  0.49248  0.30998  Biso   1.000  O
  O54      1.0000 0.09200  0.50752  0.69002  Biso   1.000  O
  O55      1.0000 0.90800  0.00752  0.69002  Biso   1.000  O
  O56      1.0000 0.09200  0.99248  0.30998  Biso   1.000  O
  O57      1.0000 0.39750  0.09255  0.79985  Biso   1.000  O
  O58      1.0000 0.60250  0.90745  0.20015  Biso   1.000  O
  O59      1.0000 0.39750  0.40745  0.20015  Biso   1.000  O
  O60      1.0000 0.60250  0.59255  0.79985  Biso   1.000  O
  O61      1.0000 0.89750  0.59255  0.29985  Biso   1.000  O
  O62      1.0000 0.10250  0.40745  0.70015  Biso   1.000  O
  O63      1.0000 0.89750  0.90745  0.70015  Biso   1.000  O
  O64      1.0000 0.10250  0.09255  0.29985  Biso   1.000  O
  O65      1.0000 0.56030  0.14759  0.75459  Biso   1.000  O
  O66      1.0000 0.43970  0.85241  0.24541  Biso   1.000  O
  O67      1.0000 0.56030  0.35241  0.24541  Biso   1.000  O
  O68      1.0000 0.43970  0.64759  0.75459  Biso   1.000  O
  O69      1.0000 0.06030  0.64759  0.25459  Biso   1.000  O
  O70      1.0000 0.93970  0.35241  0.74541  Biso   1.000  O
  O71      1.0000 0.06030  0.85241  0.74541  Biso   1.000  O
  O72      1.0000 0.93970  0.14759  0.25459  Biso   1.000  O
  O73      1.0000 0.54410  0.02081  0.75761  Biso   1.000  O
  O74      1.0000 0.45590  0.97919  0.24239  Biso   1.000  O
  O75      1.0000 0.54410  0.47919  0.24239  Biso   1.000  O
  O76      1.0000 0.45590  0.52081  0.75761  Biso   1.000  O
  O77      1.0000 0.04410  0.52081  0.25761  Biso   1.000  O
  O78      1.0000 0.95590  0.47919  0.74239  Biso   1.000  O
  O79      1.0000 0.04410  0.97919  0.74239  Biso   1.000  O
  O80      1.0000 0.95590  0.02081  0.25761  Biso   1.000  O
  O81      1.0000 0.74980  0.00824  0.74044  Biso   1.000  O
  O82      1.0000 0.25020  0.99176  0.25956  Biso   1.000  O
  O83      1.0000 0.74980  0.49176  0.25956  Biso   1.000  O
  O84      1.0000 0.25020  0.50824  0.74044  Biso   1.000  O
  O85      1.0000 0.24980  0.50824  0.24044  Biso   1.000  O
  O86      1.0000 0.75020  0.49176  0.75956  Biso   1.000  O
  O87      1.0000 0.24980  0.99176  0.75956  Biso   1.000  O
  O88      1.0000 0.75020  0.00824  0.24044  Biso   1.000  O
  O89      1.0000 0.73000  0.13109  0.72879  Biso   1.000  O
  O90      1.0000 0.27000  0.86891  0.27121  Biso   1.000  O
  O91      1.0000 0.73000  0.36891  0.27121  Biso   1.000  O
  O92      1.0000 0.27000  0.63109  0.72879  Biso   1.000  O
  O93      1.0000 0.23000  0.63109  0.22879  Biso   1.000  O
  O94      1.0000 0.77000  0.36891  0.77121  Biso   1.000  O
  O95      1.0000 0.23000  0.86891  0.77121  Biso   1.000  O
  O96      1.0000 0.77000  0.13109  0.22879  Biso   1.000  O
  O97      1.0000 0.98940  0.20171  0.73831  Biso   1.000  O
  O98      1.0000 0.01060  0.79829  0.26169  Biso   1.000  O
  O99      1.0000 0.98940  0.29829  0.26169  Biso   1.000  O
  O100     1.0000 0.01060  0.70171  0.73831  Biso   1.000  O
  O101     1.0000 0.48940  0.70171  0.23831  Biso   1.000  O
  O102     1.0000 0.51060  0.29829  0.76169  Biso   1.000  O
  O103     1.0000 0.48940  0.79829  0.76169  Biso   1.000  O
  O104     1.0000 0.51060  0.20171  0.23831  Biso   1.000  O
  H257     1.0000 0.00540  0.20970  0.75380  Biso   1.000  H
  H258     1.0000 0.99460  0.79030  0.24620  Biso   1.000  H
  H259     1.0000 0.00540  0.29030  0.24620  Biso   1.000  H
  H260     1.0000 0.99460  0.70970  0.75380  Biso   1.000  H
  H261     1.0000 0.50540  0.70970  0.25380  Biso   1.000  H
  H262     1.0000 0.49460  0.29030  0.74620  Biso   1.000  H
  H263     1.0000 0.50540  0.79030  0.74620  Biso   1.000  H
  H264     1.0000 0.49460  0.20970  0.25380  Biso   1.000  H
  H265     1.0000 0.05460  0.21370  0.72990  Biso   1.000  H
  H266     1.0000 0.94540  0.78630  0.27010  Biso   1.000  H
  H267     1.0000 0.05460  0.28630  0.27010  Biso   1.000  H
  H268     1.0000 0.94540  0.71370  0.72990  Biso   1.000  H
  H269     1.0000 0.55460  0.71370  0.22990  Biso   1.000  H
  H270     1.0000 0.44540  0.28630  0.77010  Biso   1.000  H
  H271     1.0000 0.55460  0.78630  0.77010  Biso   1.000  H
  H272     1.0000 0.44540  0.21370  0.22990  Biso   1.000  H
  O105     1.0000 0.93250  0.13959  0.68869  Biso   1.000  O
  O106     1.0000 0.06750  0.86041  0.31131  Biso   1.000  O
  O107     1.0000 0.93250  0.36041  0.31131  Biso   1.000  O
  O108     1.0000 0.06750  0.63959  0.68869  Biso   1.000  O
  O109     1.0000 0.43250  0.63959  0.18869  Biso   1.000  O
  O110     1.0000 0.56750  0.36041  0.81131  Biso   1.000  O
  O111     1.0000 0.43250  0.86041  0.81131  Biso   1.000  O
  O112     1.0000 0.56750  0.13959  0.18869  Biso   1.000  O
  H273     1.0000 0.99200  0.12600  0.67830  Biso   1.000  H
  H274     1.0000 0.00800  0.87400  0.32170  Biso   1.000  H
  H275     1.0000 0.99200  0.37400  0.32170  Biso   1.000  H
  H276     1.0000 0.00800  0.62600  0.67830  Biso   1.000  H
  H277     1.0000 0.49200  0.62600  0.17830  Biso   1.000  H
  H278     1.0000 0.50800  0.37400  0.82170  Biso   1.000  H
  H279     1.0000 0.49200  0.87400  0.82170  Biso   1.000  H
  H280     1.0000 0.50800  0.12600  0.17830  Biso   1.000  H
  H281     1.0000 0.85610  0.13290  0.68230  Biso   1.000  H
  H282     1.0000 0.14390  0.86710  0.31770  Biso   1.000  H
  H283     1.0000 0.85610  0.36710  0.31770  Biso   1.000  H
  H284     1.0000 0.14390  0.63290  0.68230  Biso   1.000  H
  H285     1.0000 0.35610  0.63290  0.18230  Biso   1.000  H
  H286     1.0000 0.64390  0.36710  0.81770  Biso   1.000  H
  H287     1.0000 0.35610  0.86710  0.81770  Biso   1.000  H
  H288     1.0000 0.64390  0.13290  0.18230  Biso   1.000  H
  N1       1.0000 0.08120  0.35217  0.94357  Biso   1.000  N
  N2       1.0000 0.91880  0.64783  0.05643  Biso   1.000  N
  N3       1.0000 0.08120  0.14783  0.05643  Biso   1.000  N
  N4       1.0000 0.91880  0.85217  0.94357  Biso   1.000  N
  N5       1.0000 0.58120  0.85217  0.44357  Biso   1.000  N
  N6       1.0000 0.41880  0.14783  0.55643  Biso   1.000  N
  N7       1.0000 0.58120  0.64783  0.55643  Biso   1.000  N
  N8       1.0000 0.41880  0.35217  0.44357  Biso   1.000  N
  N9       1.0000 0.40950  0.96877  0.54887  Biso   1.000  N
  N10      1.0000 0.59050  0.03123  0.45113  Biso   1.000  N
  N11      1.0000 0.40950  0.53123  0.45113  Biso   1.000  N
  N12      1.0000 0.59050  0.46877  0.54887  Biso   1.000  N
  N13      1.0000 0.90950  0.46877  0.04887  Biso   1.000  N
  N14      1.0000 0.09050  0.53123  0.95113  Biso   1.000  N
  N15      1.0000 0.90950  0.03123  0.95113  Biso   1.000  N
  N16      1.0000 0.09050  0.96877  0.04887  Biso   1.000  N
  N17      1.0000 0.97000  0.19051  0.94351  Biso   1.000  N
  N18      1.0000 0.03000  0.80949  0.05649  Biso   1.000  N
  N19      1.0000 0.97000  0.30949  0.05649  Biso   1.000  N
  N20      1.0000 0.03000  0.69051  0.94351  Biso   1.000  N
  N21      1.0000 0.47000  0.69051  0.44351  Biso   1.000  N
  N22      1.0000 0.53000  0.30949  0.55649  Biso   1.000  N
  N23      1.0000 0.47000  0.80949  0.55649  Biso   1.000  N
  N24      1.0000 0.53000  0.19051  0.44351  Biso   1.000  N
  N25      1.0000 0.51400  0.21264  0.96694  Biso   1.000  N
  N26      1.0000 0.48600  0.78736  0.03306  Biso   1.000  N
  N27      1.0000 0.51400  0.28736  0.03306  Biso   1.000  N
  N28      1.0000 0.48600  0.71264  0.96694  Biso   1.000  N
  N29      1.0000 0.01400  0.71264  0.46694  Biso   1.000  N
  N30      1.0000 0.98600  0.28736  0.53306  Biso   1.000  N
  N31      1.0000 0.01400  0.78736  0.53306  Biso   1.000  N
  N32      1.0000 0.98600  0.21264  0.46694  Biso   1.000  N
  O113     1.0000 0.70980  0.25680  0.71970  Biso   1.000  O
  O114     1.0000 0.29020  0.74320  0.28030  Biso   1.000  O
  O115     1.0000 0.70980  0.24320  0.28030  Biso   1.000  O
  O116     1.0000 0.29020  0.75680  0.71970  Biso   1.000  O
  O117     1.0000 0.20980  0.75680  0.21970  Biso   1.000  O
  O118     1.0000 0.79020  0.24320  0.78030  Biso   1.000  O
  O119     1.0000 0.20980  0.74320  0.78030  Biso   1.000  O
  O120     1.0000 0.79020  0.25680  0.21970  Biso   1.000  O
  H289     1.0000 0.64810  0.23170  0.72330  Biso   1.000  H
  H290     1.0000 0.35190  0.76830  0.27670  Biso   1.000  H
  H291     1.0000 0.64810  0.26830  0.27670  Biso   1.000  H
  H292     1.0000 0.35190  0.73170  0.72330  Biso   1.000  H
  H293     1.0000 0.14810  0.73170  0.22330  Biso   1.000  H
  H294     1.0000 0.85190  0.26830  0.77670  Biso   1.000  H
  H295     1.0000 0.14810  0.76830  0.77670  Biso   1.000  H
  H296     1.0000 0.85190  0.23170  0.22330  Biso   1.000  H
  H297     1.0000 0.69630  0.29400  0.72720  Biso   1.000  H
  H298     1.0000 0.30370  0.70600  0.27280  Biso   1.000  H
  H299     1.0000 0.69630  0.20600  0.27280  Biso   1.000  H
  H300     1.0000 0.30370  0.79400  0.72720  Biso   1.000  H
  H301     1.0000 0.19630  0.79400  0.22720  Biso   1.000  H
  H302     1.0000 0.80370  0.20600  0.77280  Biso   1.000  H
  H303     1.0000 0.19630  0.70600  0.77280  Biso   1.000  H
  H304     1.0000 0.80370  0.29400  0.22720  Biso   1.000  H
  O121     1.0000 0.82500  0.24420  0.68220  Biso   1.000  O
  O122     1.0000 0.17500  0.75580  0.31780  Biso   1.000  O
  O123     1.0000 0.82500  0.25580  0.31780  Biso   1.000  O
  O124     1.0000 0.17500  0.74420  0.68220  Biso   1.000  O
  O125     1.0000 0.32500  0.74420  0.18220  Biso   1.000  O
  O126     1.0000 0.67500  0.25580  0.81780  Biso   1.000  O
  O127     1.0000 0.32500  0.75580  0.81780  Biso   1.000  O
  O128     1.0000 0.67500  0.24420  0.18220  Biso   1.000  O
  H305     1.0000 0.77720  0.23580  0.66930  Biso   1.000  H
  H306     1.0000 0.22280  0.76420  0.33070  Biso   1.000  H
  H307     1.0000 0.77720  0.26420  0.33070  Biso   1.000  H
  H308     1.0000 0.22280  0.73580  0.66930  Biso   1.000  H
  H309     1.0000 0.27720  0.73580  0.16930  Biso   1.000  H
  H310     1.0000 0.72280  0.26420  0.83070  Biso   1.000  H
  H311     1.0000 0.27720  0.76420  0.83070  Biso   1.000  H
  H312     1.0000 0.72280  0.23580  0.16930  Biso   1.000  H
  H313     1.0000 0.77700  0.26050  0.69410  Biso   1.000  H
  H314     1.0000 0.22300  0.73950  0.30590  Biso   1.000  H
  H315     1.0000 0.77700  0.23950  0.30590  Biso   1.000  H
  H316     1.0000 0.22300  0.76050  0.69410  Biso   1.000  H
  H317     1.0000 0.27700  0.76050  0.19410  Biso   1.000  H
  H318     1.0000 0.72300  0.23950  0.80590  Biso   1.000  H
  H319     1.0000 0.27700  0.73950  0.80590  Biso   1.000  H
  H320     1.0000 0.72300  0.26050  0.19410  Biso   1.000  H
  Cl1      0.6280 0.64840  0.37367  0.88667  Biso   1.000  Cl
  Cl2      0.6280 0.35160  0.62633  0.11333  Biso   1.000  Cl
  Cl3      0.6280 0.64840  0.12633  0.11333  Biso   1.000  Cl
  Cl4      0.6280 0.35160  0.87367  0.88667  Biso   1.000  Cl
  Cl5      0.6280 0.14840  0.87367  0.38667  Biso   1.000  Cl
  Cl6      0.6280 0.85160  0.12633  0.61333  Biso   1.000  Cl
  Cl7      0.6280 0.14840  0.62633  0.61333  Biso   1.000  Cl
  Cl8      0.6280 0.85160  0.37367  0.38667  Biso   1.000  Cl
  O129     0.3720 0.66700  0.35570  0.86070  Biso   1.000  O
  O130     0.3720 0.33300  0.64430  0.13930  Biso   1.000  O
  O131     0.3720 0.66700  0.14430  0.13930  Biso   1.000  O
  O132     0.3720 0.33300  0.85570  0.86070  Biso   1.000  O
  O133     0.3720 0.16700  0.85570  0.36070  Biso   1.000  O
  O134     0.3720 0.83300  0.14430  0.63930  Biso   1.000  O
  O135     0.3720 0.16700  0.64430  0.63930  Biso   1.000  O
  O136     0.3720 0.83300  0.35570  0.36070  Biso   1.000  O
  O137     0.3720 0.51530  0.39590  0.89260  Biso   1.000  O
  O138     0.3720 0.48470  0.60410  0.10740  Biso   1.000  O
  O139     0.3720 0.51530  0.10410  0.10740  Biso   1.000  O
  O140     0.3720 0.48470  0.89590  0.89260  Biso   1.000  O
  O141     0.3720 0.01530  0.89590  0.39260  Biso   1.000  O
  O142     0.3720 0.98470  0.10410  0.60740  Biso   1.000  O
  O143     0.3720 0.01530  0.60410  0.60740  Biso   1.000  O
  O144     0.3720 0.98470  0.39590  0.39260  Biso   1.000  O
  O145     0.3720 0.67700  0.32100  0.90120  Biso   1.000  O
  O146     0.3720 0.32300  0.67900  0.09880  Biso   1.000  O
  O147     0.3720 0.67700  0.17900  0.09880  Biso   1.000  O
  O148     0.3720 0.32300  0.82100  0.90120  Biso   1.000  O
  O149     0.3720 0.17700  0.82100  0.40120  Biso   1.000  O
  O150     0.3720 0.82300  0.17900  0.59880  Biso   1.000  O
  O151     0.3720 0.17700  0.67900  0.59880  Biso   1.000  O
  O152     0.3720 0.82300  0.32100  0.40120  Biso   1.000  O
  O153     0.3720 0.73800  0.42470  0.89570  Biso   1.000  O
  O154     0.3720 0.26200  0.57530  0.10430  Biso   1.000  O
  O155     0.3720 0.73800  0.07530  0.10430  Biso   1.000  O
  O156     0.3720 0.26200  0.92470  0.89570  Biso   1.000  O
  O157     0.3720 0.23800  0.92470  0.39570  Biso   1.000  O
  O158     0.3720 0.76200  0.07530  0.60430  Biso   1.000  O
  O159     0.3720 0.23800  0.57530  0.60430  Biso   1.000  O
  O160     0.3720 0.76200  0.42470  0.39570  Biso   1.000  O
  O161     0.6280 0.63100  0.39250  0.91210  Biso   1.000  O
  O162     0.6280 0.36900  0.60750  0.08790  Biso   1.000  O
  O163     0.6280 0.63100  0.10750  0.08790  Biso   1.000  O
  O164     0.6280 0.36900  0.89250  0.91210  Biso   1.000  O
  O165     0.6280 0.13100  0.89250  0.41210  Biso   1.000  O
  O166     0.6280 0.86900  0.10750  0.58790  Biso   1.000  O
  O167     0.6280 0.13100  0.60750  0.58790  Biso   1.000  O
  O168     0.6280 0.86900  0.39250  0.41210  Biso   1.000  O
  O169     0.6280 0.75670  0.40930  0.87670  Biso   1.000  O
  O170     0.6280 0.24330  0.59070  0.12330  Biso   1.000  O
  O171     0.6280 0.75670  0.09070  0.12330  Biso   1.000  O
  O172     0.6280 0.24330  0.90930  0.87670  Biso   1.000  O
  O173     0.6280 0.25670  0.90930  0.37670  Biso   1.000  O
  O174     0.6280 0.74330  0.09070  0.62330  Biso   1.000  O
  O175     0.6280 0.25670  0.59070  0.62330  Biso   1.000  O
  O176     0.6280 0.74330  0.40930  0.37670  Biso   1.000  O
  O177     0.6280 0.53370  0.38550  0.87150  Biso   1.000  O
  O178     0.6280 0.46630  0.61450  0.12850  Biso   1.000  O
  O179     0.6280 0.53370  0.11450  0.12850  Biso   1.000  O
  O180     0.6280 0.46630  0.88550  0.87150  Biso   1.000  O
  O181     0.6280 0.03370  0.88550  0.37150  Biso   1.000  O
  O182     0.6280 0.96630  0.11450  0.62850  Biso   1.000  O
  O183     0.6280 0.03370  0.61450  0.62850  Biso   1.000  O
  O184     0.6280 0.96630  0.38550  0.37150  Biso   1.000  O
  O185     0.6280 0.68600  0.30690  0.88120  Biso   1.000  O
  O186     0.6280 0.31400  0.69310  0.11880  Biso   1.000  O
  O187     0.6280 0.68600  0.19310  0.11880  Biso   1.000  O
  O188     0.6280 0.31400  0.80690  0.88120  Biso   1.000  O
  O189     0.6280 0.18600  0.80690  0.38120  Biso   1.000  O
  O190     0.6280 0.81400  0.19310  0.61880  Biso   1.000  O
  O191     0.6280 0.18600  0.69310  0.61880  Biso   1.000  O
  O192     0.6280 0.81400  0.30690  0.38120  Biso   1.000  O
