data_image0
_cell_length_a       17.6941
_cell_length_b       18.9972
_cell_length_c       21.8647
_cell_angle_alpha    90
_cell_angle_beta     90
_cell_angle_gamma    90

_symmetry_space_group_name_H-M    "P 1"
_symmetry_int_tables_number       1

loop_
  _symmetry_equiv_pos_as_xyz
  'x, y, z'

loop_
  _atom_site_label
  _atom_site_occupancy
  _atom_site_fract_x
  _atom_site_fract_y
  _atom_site_fract_z
  _atom_site_thermal_displace_type
  _atom_site_B_iso_or_equiv
  _atom_site_type_symbol
  Mn1      1.0000 0.51142  0.24473  0.25135  Biso   1.000  Mn
  Mn2      1.0000 0.48858  0.75527  0.74865  Biso   1.000  Mn
  Mn3      1.0000 0.98858  0.74473  0.24865  Biso   1.000  Mn
  Mn4      1.0000 0.01142  0.25527  0.75135  Biso   1.000  Mn
  Mn5      1.0000 0.51142  0.25527  0.74865  Biso   1.000  Mn
  Mn6      1.0000 0.48858  0.74473  0.25135  Biso   1.000  Mn
  Mn7      1.0000 0.98858  0.75527  0.75135  Biso   1.000  Mn
  Mn8      1.0000 0.01142  0.24473  0.24865  Biso   1.000  Mn
  N1       1.0000 0.58416  0.25188  0.32126  Biso   1.000  N
  N2       1.0000 0.41584  0.74812  0.67874  Biso   1.000  N
  N3       1.0000 0.91584  0.75188  0.17874  Biso   1.000  N
  N4       1.0000 0.08416  0.24812  0.82126  Biso   1.000  N
  N5       1.0000 0.58416  0.24812  0.67874  Biso   1.000  N
  N6       1.0000 0.41584  0.75188  0.32126  Biso   1.000  N
  N7       1.0000 0.91584  0.74812  0.82126  Biso   1.000  N
  N8       1.0000 0.08416  0.25188  0.17874  Biso   1.000  N
  N9       1.0000 0.58053  0.30422  0.19978  Biso   1.000  N
  N10      1.0000 0.41947  0.69578  0.80022  Biso   1.000  N
  N11      1.0000 0.91947  0.80422  0.30022  Biso   1.000  N
  N12      1.0000 0.08053  0.19578  0.69978  Biso   1.000  N
  N13      1.0000 0.58053  0.19578  0.80022  Biso   1.000  N
  N14      1.0000 0.41947  0.80422  0.19978  Biso   1.000  N
  N15      1.0000 0.91947  0.69578  0.69978  Biso   1.000  N
  N16      1.0000 0.08053  0.30422  0.30022  Biso   1.000  N
  N17      1.0000 0.44464  0.23088  0.17863  Biso   1.000  N
  N18      1.0000 0.55536  0.76912  0.82137  Biso   1.000  N
  N19      1.0000 0.05536  0.73088  0.32137  Biso   1.000  N
  N20      1.0000 0.94464  0.26912  0.67863  Biso   1.000  N
  N21      1.0000 0.44464  0.26912  0.82137  Biso   1.000  N
  N22      1.0000 0.55536  0.73088  0.17863  Biso   1.000  N
  N23      1.0000 0.05536  0.76912  0.67863  Biso   1.000  N
  N24      1.0000 0.94464  0.23088  0.32137  Biso   1.000  N
  N25      1.0000 0.44798  0.17807  0.30002  Biso   1.000  N
  N26      1.0000 0.55202  0.82193  0.69998  Biso   1.000  N
  N27      1.0000 0.05202  0.67807  0.19998  Biso   1.000  N
  N28      1.0000 0.94798  0.32193  0.80002  Biso   1.000  N
  N29      1.0000 0.44798  0.32193  0.69998  Biso   1.000  N
  N30      1.0000 0.55202  0.67807  0.30002  Biso   1.000  N
  N31      1.0000 0.05202  0.82193  0.80002  Biso   1.000  N
  N32      1.0000 0.94798  0.17807  0.19998  Biso   1.000  N
  C1       1.0000 0.51950  0.17560  0.39669  Biso   1.000  C
  C2       1.0000 0.48050  0.82440  0.60331  Biso   1.000  C
  C3       1.0000 0.98050  0.67560  0.10331  Biso   1.000  C
  C4       1.0000 0.01950  0.32440  0.89669  Biso   1.000  C
  C5       1.0000 0.51950  0.32440  0.60331  Biso   1.000  C
  C6       1.0000 0.48050  0.67560  0.39669  Biso   1.000  C
  C7       1.0000 0.98050  0.82440  0.89669  Biso   1.000  C
  C8       1.0000 0.01950  0.17560  0.10331  Biso   1.000  C
  C9       1.0000 0.57760  0.22058  0.37805  Biso   1.000  C
  C10      1.0000 0.42240  0.77942  0.62195  Biso   1.000  C
  C11      1.0000 0.92240  0.72058  0.12195  Biso   1.000  C
  C12      1.0000 0.07760  0.27942  0.87805  Biso   1.000  C
  C13      1.0000 0.57760  0.27942  0.62195  Biso   1.000  C
  C14      1.0000 0.42240  0.72058  0.37805  Biso   1.000  C
  C15      1.0000 0.92240  0.77942  0.87805  Biso   1.000  C
  C16      1.0000 0.07760  0.22058  0.12195  Biso   1.000  C
  C17      1.0000 0.63983  0.24038  0.41533  Biso   1.000  C
  C18      1.0000 0.36017  0.75962  0.58467  Biso   1.000  C
  C19      1.0000 0.86017  0.74038  0.08467  Biso   1.000  C
  C20      1.0000 0.13983  0.25962  0.91533  Biso   1.000  C
  C21      1.0000 0.63983  0.25962  0.58467  Biso   1.000  C
  C22      1.0000 0.36017  0.74038  0.41533  Biso   1.000  C
  C23      1.0000 0.86017  0.75962  0.91533  Biso   1.000  C
  C24      1.0000 0.13983  0.24038  0.08467  Biso   1.000  C
  H1       1.0000 0.64779  0.22711  0.45576  Biso   1.000  H
  H2       1.0000 0.35221  0.77289  0.54424  Biso   1.000  H
  H3       1.0000 0.85221  0.72711  0.04424  Biso   1.000  H
  H4       1.0000 0.14779  0.27289  0.95576  Biso   1.000  H
  H5       1.0000 0.64779  0.27289  0.54424  Biso   1.000  H
  H6       1.0000 0.35221  0.72711  0.45576  Biso   1.000  H
  H7       1.0000 0.85221  0.77289  0.95576  Biso   1.000  H
  H8       1.0000 0.14779  0.22711  0.04424  Biso   1.000  H
  C25      1.0000 0.68563  0.28224  0.38115  Biso   1.000  C
  C26      1.0000 0.31437  0.71776  0.61885  Biso   1.000  C
  C27      1.0000 0.81437  0.78224  0.11885  Biso   1.000  C
  C28      1.0000 0.18563  0.21776  0.88115  Biso   1.000  C
  C29      1.0000 0.68563  0.21776  0.61885  Biso   1.000  C
  C30      1.0000 0.31437  0.78224  0.38115  Biso   1.000  C
  C31      1.0000 0.81437  0.71776  0.88115  Biso   1.000  C
  C32      1.0000 0.18563  0.28224  0.11885  Biso   1.000  C
  H9       1.0000 0.73080  0.30265  0.39374  Biso   1.000  H
  H10      1.0000 0.26920  0.69735  0.60626  Biso   1.000  H
  H11      1.0000 0.76920  0.80265  0.10626  Biso   1.000  H
  H12      1.0000 0.23080  0.19735  0.89374  Biso   1.000  H
  H13      1.0000 0.73080  0.19735  0.60626  Biso   1.000  H
  H14      1.0000 0.26920  0.80265  0.39374  Biso   1.000  H
  H15      1.0000 0.76920  0.69735  0.89374  Biso   1.000  H
  H16      1.0000 0.23080  0.30265  0.10626  Biso   1.000  H
  C33      1.0000 0.65158  0.28899  0.32256  Biso   1.000  C
  C34      1.0000 0.34842  0.71101  0.67744  Biso   1.000  C
  C35      1.0000 0.84842  0.78899  0.17744  Biso   1.000  C
  C36      1.0000 0.15158  0.21101  0.82256  Biso   1.000  C
  C37      1.0000 0.65158  0.21101  0.67744  Biso   1.000  C
  C38      1.0000 0.34842  0.78899  0.32256  Biso   1.000  C
  C39      1.0000 0.84842  0.71101  0.82256  Biso   1.000  C
  C40      1.0000 0.15158  0.28899  0.17744  Biso   1.000  C
  C41      1.0000 0.68316  0.32629  0.27443  Biso   1.000  C
  C42      1.0000 0.31684  0.67371  0.72557  Biso   1.000  C
  C43      1.0000 0.81684  0.82629  0.22557  Biso   1.000  C
  C44      1.0000 0.18316  0.17371  0.77443  Biso   1.000  C
  C45      1.0000 0.68316  0.17371  0.72557  Biso   1.000  C
  C46      1.0000 0.31684  0.82629  0.27443  Biso   1.000  C
  C47      1.0000 0.81684  0.67371  0.77443  Biso   1.000  C
  C48      1.0000 0.18316  0.32629  0.22557  Biso   1.000  C
  C49      1.0000 0.64771  0.33478  0.21806  Biso   1.000  C
  C50      1.0000 0.35229  0.66522  0.78194  Biso   1.000  C
  C51      1.0000 0.85229  0.83478  0.28194  Biso   1.000  C
  C52      1.0000 0.14771  0.16522  0.71806  Biso   1.000  C
  C53      1.0000 0.64771  0.16522  0.78194  Biso   1.000  C
  C54      1.0000 0.35229  0.83478  0.21806  Biso   1.000  C
  C55      1.0000 0.85229  0.66522  0.71806  Biso   1.000  C
  C56      1.0000 0.14771  0.33478  0.28194  Biso   1.000  C
  C57      1.0000 0.67429  0.38119  0.17127  Biso   1.000  C
  C58      1.0000 0.32571  0.61881  0.82873  Biso   1.000  C
  C59      1.0000 0.82571  0.88119  0.32873  Biso   1.000  C
  C60      1.0000 0.17429  0.11881  0.67127  Biso   1.000  C
  C61      1.0000 0.67429  0.11881  0.82873  Biso   1.000  C
  C62      1.0000 0.32571  0.88119  0.17127  Biso   1.000  C
  C63      1.0000 0.82571  0.61881  0.67127  Biso   1.000  C
  C64      1.0000 0.17429  0.38119  0.32873  Biso   1.000  C
  H17      1.0000 0.71849  0.40764  0.17239  Biso   1.000  H
  H18      1.0000 0.28151  0.59236  0.82761  Biso   1.000  H
  H19      1.0000 0.78151  0.90764  0.32761  Biso   1.000  H
  H20      1.0000 0.21849  0.09236  0.67239  Biso   1.000  H
  H21      1.0000 0.71849  0.09236  0.82761  Biso   1.000  H
  H22      1.0000 0.28151  0.90764  0.17239  Biso   1.000  H
  H23      1.0000 0.78151  0.59236  0.67239  Biso   1.000  H
  H24      1.0000 0.21849  0.40764  0.32761  Biso   1.000  H
  C65      1.0000 0.62373  0.37963  0.12535  Biso   1.000  C
  C66      1.0000 0.37627  0.62037  0.87465  Biso   1.000  C
  C67      1.0000 0.87627  0.87963  0.37465  Biso   1.000  C
  C68      1.0000 0.12373  0.12037  0.62535  Biso   1.000  C
  C69      1.0000 0.62373  0.12037  0.87465  Biso   1.000  C
  C70      1.0000 0.37627  0.87963  0.12535  Biso   1.000  C
  C71      1.0000 0.87627  0.62037  0.62535  Biso   1.000  C
  C72      1.0000 0.12373  0.37963  0.37465  Biso   1.000  C
  H25      1.0000 0.62586  0.40554  0.08930  Biso   1.000  H
  H26      1.0000 0.37414  0.59446  0.91070  Biso   1.000  H
  H27      1.0000 0.87414  0.90554  0.41070  Biso   1.000  H
  H28      1.0000 0.12586  0.09446  0.58930  Biso   1.000  H
  H29      1.0000 0.62586  0.09446  0.91070  Biso   1.000  H
  H30      1.0000 0.37414  0.90554  0.08930  Biso   1.000  H
  H31      1.0000 0.87414  0.59446  0.58930  Biso   1.000  H
  H32      1.0000 0.12586  0.40554  0.41070  Biso   1.000  H
  C73      1.0000 0.56615  0.33068  0.14237  Biso   1.000  C
  C74      1.0000 0.43385  0.66932  0.85763  Biso   1.000  C
  C75      1.0000 0.93385  0.83068  0.35763  Biso   1.000  C
  C76      1.0000 0.06615  0.16932  0.64237  Biso   1.000  C
  C77      1.0000 0.56615  0.16932  0.85763  Biso   1.000  C
  C78      1.0000 0.43385  0.83068  0.14237  Biso   1.000  C
  C79      1.0000 0.93385  0.66932  0.64237  Biso   1.000  C
  C80      1.0000 0.06615  0.33068  0.35763  Biso   1.000  C
  C81      1.0000 0.50404  0.31436  0.10562  Biso   1.000  C
  C82      1.0000 0.49596  0.68564  0.89438  Biso   1.000  C
  C83      1.0000 0.99596  0.81436  0.39438  Biso   1.000  C
  C84      1.0000 0.00404  0.18564  0.60562  Biso   1.000  C
  C85      1.0000 0.50404  0.18564  0.89438  Biso   1.000  C
  C86      1.0000 0.49596  0.81436  0.10562  Biso   1.000  C
  C87      1.0000 0.99596  0.68564  0.60562  Biso   1.000  C
  C88      1.0000 0.00404  0.31436  0.39438  Biso   1.000  C
  C89      1.0000 0.44868  0.26643  0.12359  Biso   1.000  C
  C90      1.0000 0.55132  0.73357  0.87641  Biso   1.000  C
  C91      1.0000 0.05132  0.76643  0.37641  Biso   1.000  C
  C92      1.0000 0.94868  0.23357  0.62359  Biso   1.000  C
  C93      1.0000 0.44868  0.23357  0.87641  Biso   1.000  C
  C94      1.0000 0.55132  0.76643  0.12359  Biso   1.000  C
  C95      1.0000 0.05132  0.73357  0.62359  Biso   1.000  C
  C96      1.0000 0.94868  0.26643  0.37641  Biso   1.000  C
  C97      1.0000 0.38595  0.24683  0.08604  Biso   1.000  C
  C98      1.0000 0.61405  0.75317  0.91396  Biso   1.000  C
  C99      1.0000 0.11405  0.74683  0.41396  Biso   1.000  C
  C100     1.0000 0.88595  0.25317  0.58604  Biso   1.000  C
  C101     1.0000 0.38595  0.25317  0.91396  Biso   1.000  C
  C102     1.0000 0.61405  0.74683  0.08604  Biso   1.000  C
  C103     1.0000 0.11405  0.75317  0.58604  Biso   1.000  C
  C104     1.0000 0.88595  0.24683  0.41396  Biso   1.000  C
  H33      1.0000 0.37585  0.26315  0.04678  Biso   1.000  H
  H34      1.0000 0.62415  0.73685  0.95322  Biso   1.000  H
  H35      1.0000 0.12415  0.76315  0.45322  Biso   1.000  H
  H36      1.0000 0.87585  0.23685  0.54678  Biso   1.000  H
  H37      1.0000 0.37585  0.23685  0.95322  Biso   1.000  H
  H38      1.0000 0.62415  0.76315  0.04678  Biso   1.000  H
  H39      1.0000 0.12415  0.73685  0.54678  Biso   1.000  H
  H40      1.0000 0.87585  0.26315  0.45322  Biso   1.000  H
  C105     1.0000 0.34403  0.20022  0.11813  Biso   1.000  C
  C106     1.0000 0.65597  0.79978  0.88187  Biso   1.000  C
  C107     1.0000 0.15597  0.70022  0.38187  Biso   1.000  C
  C108     1.0000 0.84403  0.29978  0.61813  Biso   1.000  C
  C109     1.0000 0.34403  0.29978  0.88187  Biso   1.000  C
  C110     1.0000 0.65597  0.70022  0.11813  Biso   1.000  C
  C111     1.0000 0.15597  0.79978  0.61813  Biso   1.000  C
  C112     1.0000 0.84403  0.20022  0.38187  Biso   1.000  C
  H41      1.0000 0.30002  0.17826  0.10483  Biso   1.000  H
  H42      1.0000 0.69998  0.82174  0.89517  Biso   1.000  H
  H43      1.0000 0.19998  0.67826  0.39517  Biso   1.000  H
  H44      1.0000 0.80002  0.32174  0.60483  Biso   1.000  H
  H45      1.0000 0.30002  0.32174  0.89517  Biso   1.000  H
  H46      1.0000 0.69998  0.67826  0.10483  Biso   1.000  H
  H47      1.0000 0.19998  0.82174  0.60483  Biso   1.000  H
  H48      1.0000 0.80002  0.17826  0.39517  Biso   1.000  H
  C113     1.0000 0.37954  0.19086  0.17604  Biso   1.000  C
  C114     1.0000 0.62046  0.80914  0.82396  Biso   1.000  C
  C115     1.0000 0.12046  0.69086  0.32396  Biso   1.000  C
  C116     1.0000 0.87954  0.30914  0.67604  Biso   1.000  C
  C117     1.0000 0.37954  0.30914  0.82396  Biso   1.000  C
  C118     1.0000 0.62046  0.69086  0.17604  Biso   1.000  C
  C119     1.0000 0.12046  0.80914  0.67604  Biso   1.000  C
  C120     1.0000 0.87954  0.19086  0.32396  Biso   1.000  C
  C121     1.0000 0.35020  0.15042  0.22333  Biso   1.000  C
  C122     1.0000 0.64980  0.84958  0.77667  Biso   1.000  C
  C123     1.0000 0.14980  0.65042  0.27667  Biso   1.000  C
  C124     1.0000 0.85020  0.34958  0.72333  Biso   1.000  C
  C125     1.0000 0.35020  0.34958  0.77667  Biso   1.000  C
  C126     1.0000 0.64980  0.65042  0.22333  Biso   1.000  C
  C127     1.0000 0.14980  0.84958  0.72333  Biso   1.000  C
  C128     1.0000 0.85020  0.15042  0.27667  Biso   1.000  C
  C129     1.0000 0.38323  0.14395  0.28056  Biso   1.000  C
  C130     1.0000 0.61677  0.85605  0.71944  Biso   1.000  C
  C131     1.0000 0.11677  0.64395  0.21944  Biso   1.000  C
  C132     1.0000 0.88323  0.35605  0.78056  Biso   1.000  C
  C133     1.0000 0.38323  0.35605  0.71944  Biso   1.000  C
  C134     1.0000 0.61677  0.64395  0.28056  Biso   1.000  C
  C135     1.0000 0.11677  0.85605  0.78056  Biso   1.000  C
  C136     1.0000 0.88323  0.14395  0.21944  Biso   1.000  C
  C137     1.0000 0.35550  0.09970  0.32888  Biso   1.000  C
  C138     1.0000 0.64450  0.90030  0.67112  Biso   1.000  C
  C139     1.0000 0.14450  0.59970  0.17112  Biso   1.000  C
  C140     1.0000 0.85550  0.40030  0.82888  Biso   1.000  C
  C141     1.0000 0.35550  0.40030  0.67112  Biso   1.000  C
  C142     1.0000 0.64450  0.59970  0.32888  Biso   1.000  C
  C143     1.0000 0.14450  0.90030  0.82888  Biso   1.000  C
  C144     1.0000 0.85550  0.09970  0.17112  Biso   1.000  C
  H49      1.0000 0.31288  0.07109  0.32738  Biso   1.000  H
  H50      1.0000 0.68712  0.92891  0.67262  Biso   1.000  H
  H51      1.0000 0.18712  0.57109  0.17262  Biso   1.000  H
  H52      1.0000 0.81288  0.42891  0.82738  Biso   1.000  H
  H53      1.0000 0.31288  0.42891  0.67262  Biso   1.000  H
  H54      1.0000 0.68712  0.57109  0.32738  Biso   1.000  H
  H55      1.0000 0.18712  0.92891  0.82738  Biso   1.000  H
  H56      1.0000 0.81288  0.07109  0.17262  Biso   1.000  H
  C145     1.0000 0.40250  0.10740  0.37661  Biso   1.000  C
  C146     1.0000 0.59750  0.89260  0.62339  Biso   1.000  C
  C147     1.0000 0.09750  0.60740  0.12339  Biso   1.000  C
  C148     1.0000 0.90250  0.39260  0.87661  Biso   1.000  C
  C149     1.0000 0.40250  0.39260  0.62339  Biso   1.000  C
  C150     1.0000 0.59750  0.60740  0.37661  Biso   1.000  C
  C151     1.0000 0.09750  0.89260  0.87661  Biso   1.000  C
  C152     1.0000 0.90250  0.10740  0.12339  Biso   1.000  C
  H57      1.0000 0.39823  0.08496  0.41427  Biso   1.000  H
  H58      1.0000 0.60177  0.91504  0.58573  Biso   1.000  H
  H59      1.0000 0.10177  0.58496  0.08573  Biso   1.000  H
  H60      1.0000 0.89823  0.41504  0.91427  Biso   1.000  H
  H61      1.0000 0.39823  0.41504  0.58573  Biso   1.000  H
  H62      1.0000 0.60177  0.58496  0.41427  Biso   1.000  H
  H63      1.0000 0.10177  0.91504  0.91427  Biso   1.000  H
  H64      1.0000 0.89823  0.08496  0.08573  Biso   1.000  H
  C153     1.0000 0.46020  0.15610  0.35929  Biso   1.000  C
  C154     1.0000 0.53980  0.84390  0.64071  Biso   1.000  C
  C155     1.0000 0.03980  0.65610  0.14071  Biso   1.000  C
  C156     1.0000 0.96020  0.34390  0.85929  Biso   1.000  C
  C157     1.0000 0.46020  0.34390  0.64071  Biso   1.000  C
  C158     1.0000 0.53980  0.65610  0.35929  Biso   1.000  C
  C159     1.0000 0.03980  0.84390  0.85929  Biso   1.000  C
  C160     1.0000 0.96020  0.15610  0.14071  Biso   1.000  C
  C161     1.0000 0.52090  0.14790  0.46032  Biso   1.000  C
  C162     1.0000 0.47910  0.85210  0.53968  Biso   1.000  C
  C163     1.0000 0.97910  0.64790  0.03968  Biso   1.000  C
  C164     1.0000 0.02090  0.35210  0.96032  Biso   1.000  C
  C165     1.0000 0.52090  0.35210  0.53968  Biso   1.000  C
  C166     1.0000 0.47910  0.64790  0.46032  Biso   1.000  C
  C167     1.0000 0.97910  0.85210  0.96032  Biso   1.000  C
  C168     1.0000 0.02090  0.14790  0.03968  Biso   1.000  C
  C169     1.0000 0.46370  0.16510  0.50050  Biso   1.000  C
  C170     1.0000 0.53630  0.83490  0.49950  Biso   1.000  C
  C171     1.0000 0.03630  0.66510  0.99950  Biso   1.000  C
  C172     1.0000 0.96370  0.33490  0.00050  Biso   1.000  C
  C173     1.0000 0.46370  0.33490  0.49950  Biso   1.000  C
  C174     1.0000 0.53630  0.66510  0.50050  Biso   1.000  C
  C175     1.0000 0.03630  0.83490  0.00050  Biso   1.000  C
  C176     1.0000 0.96370  0.16510  0.99950  Biso   1.000  C
  H65      1.0000 0.42338  0.19187  0.48622  Biso   1.000  H
  H66      1.0000 0.57662  0.80813  0.51378  Biso   1.000  H
  H67      1.0000 0.07662  0.69187  0.01378  Biso   1.000  H
  H68      1.0000 0.92338  0.30813  0.98622  Biso   1.000  H
  H69      1.0000 0.42338  0.30813  0.51378  Biso   1.000  H
  H70      1.0000 0.57662  0.69187  0.48622  Biso   1.000  H
  H71      1.0000 0.07662  0.80813  0.98622  Biso   1.000  H
  H72      1.0000 0.92338  0.19187  0.01378  Biso   1.000  H
  C177     1.0000 0.46370  0.14450  0.56070  Biso   1.000  C
  C178     1.0000 0.53630  0.85550  0.43930  Biso   1.000  C
  C179     1.0000 0.03630  0.64450  0.93930  Biso   1.000  C
  C180     1.0000 0.96370  0.35550  0.06070  Biso   1.000  C
  C181     1.0000 0.46370  0.35550  0.43930  Biso   1.000  C
  C182     1.0000 0.53630  0.64450  0.56070  Biso   1.000  C
  C183     1.0000 0.03630  0.85550  0.06070  Biso   1.000  C
  C184     1.0000 0.96370  0.14450  0.93930  Biso   1.000  C
  C185     1.0000 0.52260  0.10390  0.58210  Biso   1.000  C
  C186     1.0000 0.47740  0.89610  0.41790  Biso   1.000  C
  C187     1.0000 0.97740  0.60390  0.91790  Biso   1.000  C
  C188     1.0000 0.02260  0.39610  0.08210  Biso   1.000  C
  C189     1.0000 0.52260  0.39610  0.41790  Biso   1.000  C
  C190     1.0000 0.47740  0.60390  0.58210  Biso   1.000  C
  C191     1.0000 0.97740  0.89610  0.08210  Biso   1.000  C
  C192     1.0000 0.02260  0.10390  0.91790  Biso   1.000  C
  C193     1.0000 0.58010  0.08450  0.54170  Biso   1.000  C
  C194     1.0000 0.41990  0.91550  0.45830  Biso   1.000  C
  C195     1.0000 0.91990  0.58450  0.95830  Biso   1.000  C
  C196     1.0000 0.08010  0.41550  0.04170  Biso   1.000  C
  C197     1.0000 0.58010  0.41550  0.45830  Biso   1.000  C
  C198     1.0000 0.41990  0.58450  0.54170  Biso   1.000  C
  C199     1.0000 0.91990  0.91550  0.04170  Biso   1.000  C
  C200     1.0000 0.08010  0.08450  0.95830  Biso   1.000  C
  C201     1.0000 0.57970  0.10600  0.48100  Biso   1.000  C
  C202     1.0000 0.42030  0.89400  0.51900  Biso   1.000  C
  C203     1.0000 0.92030  0.60600  0.01900  Biso   1.000  C
  C204     1.0000 0.07970  0.39400  0.98100  Biso   1.000  C
  C205     1.0000 0.57970  0.39400  0.51900  Biso   1.000  C
  C206     1.0000 0.42030  0.60600  0.48100  Biso   1.000  C
  C207     1.0000 0.92030  0.89400  0.98100  Biso   1.000  C
  C208     1.0000 0.07970  0.10600  0.01900  Biso   1.000  C
  H73      1.0000 0.61833  0.09254  0.45462  Biso   1.000  H
  H74      1.0000 0.38167  0.90746  0.54538  Biso   1.000  H
  H75      1.0000 0.88167  0.59254  0.04538  Biso   1.000  H
  H76      1.0000 0.11833  0.40746  0.95462  Biso   1.000  H
  H77      1.0000 0.61833  0.40746  0.54538  Biso   1.000  H
  H78      1.0000 0.38167  0.59254  0.45462  Biso   1.000  H
  H79      1.0000 0.88167  0.90746  0.95462  Biso   1.000  H
  H80      1.0000 0.11833  0.09254  0.04538  Biso   1.000  H
  O1       1.0000 0.40610  0.16360  0.59826  Biso   1.000  O
  O2       1.0000 0.59390  0.83640  0.40174  Biso   1.000  O
  O3       1.0000 0.09390  0.66360  0.90174  Biso   1.000  O
  O4       1.0000 0.90610  0.33640  0.09826  Biso   1.000  O
  O5       1.0000 0.40610  0.33640  0.40174  Biso   1.000  O
  O6       1.0000 0.59390  0.66360  0.59826  Biso   1.000  O
  O7       1.0000 0.09390  0.83640  0.09826  Biso   1.000  O
  O8       1.0000 0.90610  0.16360  0.90174  Biso   1.000  O
  H81      1.0000 0.42113  0.19325  0.62267  Biso   1.000  H
  H82      1.0000 0.57887  0.80675  0.37733  Biso   1.000  H
  H83      1.0000 0.07887  0.69325  0.87733  Biso   1.000  H
  H84      1.0000 0.92113  0.30675  0.12267  Biso   1.000  H
  H85      1.0000 0.42113  0.30675  0.37733  Biso   1.000  H
  H86      1.0000 0.57887  0.69325  0.62267  Biso   1.000  H
  H87      1.0000 0.07887  0.80675  0.12267  Biso   1.000  H
  H88      1.0000 0.92113  0.19325  0.87733  Biso   1.000  H
  O9       1.0000 0.52930  0.07940  0.64019  Biso   1.000  O
  O10      1.0000 0.47070  0.92060  0.35981  Biso   1.000  O
  O11      1.0000 0.97070  0.57940  0.85981  Biso   1.000  O
  O12      1.0000 0.02930  0.42060  0.14019  Biso   1.000  O
  O13      1.0000 0.52930  0.42060  0.35981  Biso   1.000  O
  O14      1.0000 0.47070  0.57940  0.64019  Biso   1.000  O
  O15      1.0000 0.97070  0.92060  0.14019  Biso   1.000  O
  O16      1.0000 0.02930  0.07940  0.85981  Biso   1.000  O
  H89      1.0000 0.50176  0.10224  0.66291  Biso   1.000  H
  H90      1.0000 0.49824  0.89776  0.33709  Biso   1.000  H
  H91      1.0000 0.99824  0.60224  0.83709  Biso   1.000  H
  H92      1.0000 0.00176  0.39776  0.16291  Biso   1.000  H
  H93      1.0000 0.50176  0.39776  0.33709  Biso   1.000  H
  H94      1.0000 0.49824  0.60224  0.66291  Biso   1.000  H
  H95      1.0000 0.99824  0.89776  0.16291  Biso   1.000  H
  H96      1.0000 0.00176  0.10224  0.83709  Biso   1.000  H
  O17      1.0000 0.63780  0.04380  0.56461  Biso   1.000  O
  O18      1.0000 0.36220  0.95620  0.43539  Biso   1.000  O
  O19      1.0000 0.86220  0.54380  0.93539  Biso   1.000  O
  O20      1.0000 0.13780  0.45620  0.06461  Biso   1.000  O
  O21      1.0000 0.63780  0.45620  0.43539  Biso   1.000  O
  O22      1.0000 0.36220  0.54380  0.56461  Biso   1.000  O
  O23      1.0000 0.86220  0.95620  0.06461  Biso   1.000  O
  O24      1.0000 0.13780  0.04380  0.93539  Biso   1.000  O
  H97      1.0000 0.65660  0.02062  0.53688  Biso   1.000  H
  H98      1.0000 0.34340  0.97938  0.46312  Biso   1.000  H
  H99      1.0000 0.84340  0.52062  0.96312  Biso   1.000  H
  H100     1.0000 0.15660  0.47938  0.03688  Biso   1.000  H
  H101     1.0000 0.65660  0.47938  0.46312  Biso   1.000  H
  H102     1.0000 0.34340  0.52062  0.53688  Biso   1.000  H
  H103     1.0000 0.84340  0.97938  0.03688  Biso   1.000  H
  H104     1.0000 0.15660  0.02062  0.96312  Biso   1.000  H
  C209     1.0000 0.75979  0.35824  0.28081  Biso   1.000  C
  C210     1.0000 0.24021  0.64176  0.71919  Biso   1.000  C
  C211     1.0000 0.74021  0.85824  0.21919  Biso   1.000  C
  C212     1.0000 0.25979  0.14176  0.78081  Biso   1.000  C
  C213     1.0000 0.75979  0.14176  0.71919  Biso   1.000  C
  C214     1.0000 0.24021  0.85824  0.28081  Biso   1.000  C
  C215     1.0000 0.74021  0.64176  0.78081  Biso   1.000  C
  C216     1.0000 0.25979  0.35824  0.21919  Biso   1.000  C
  C217     1.0000 0.77304  0.41494  0.31928  Biso   1.000  C
  C218     1.0000 0.22696  0.58506  0.68072  Biso   1.000  C
  C219     1.0000 0.72696  0.91494  0.18072  Biso   1.000  C
  C220     1.0000 0.27304  0.08506  0.81928  Biso   1.000  C
  C221     1.0000 0.77304  0.08506  0.68072  Biso   1.000  C
  C222     1.0000 0.22696  0.91494  0.31928  Biso   1.000  C
  C223     1.0000 0.72696  0.58506  0.81928  Biso   1.000  C
  C224     1.0000 0.27304  0.41494  0.18072  Biso   1.000  C
  H105     1.0000 0.73408  0.43310  0.34307  Biso   1.000  H
  H106     1.0000 0.26592  0.56690  0.65693  Biso   1.000  H
  H107     1.0000 0.76592  0.93310  0.15693  Biso   1.000  H
  H108     1.0000 0.23408  0.06690  0.84307  Biso   1.000  H
  H109     1.0000 0.73408  0.06690  0.65693  Biso   1.000  H
  H110     1.0000 0.26592  0.93310  0.34307  Biso   1.000  H
  H111     1.0000 0.76592  0.56690  0.84307  Biso   1.000  H
  H112     1.0000 0.23408  0.43310  0.15693  Biso   1.000  H
  C225     1.0000 0.84513  0.44465  0.32214  Biso   1.000  C
  C226     1.0000 0.15487  0.55535  0.67786  Biso   1.000  C
  C227     1.0000 0.65487  0.94465  0.17786  Biso   1.000  C
  C228     1.0000 0.34513  0.05535  0.82214  Biso   1.000  C
  C229     1.0000 0.84513  0.05535  0.67786  Biso   1.000  C
  C230     1.0000 0.15487  0.94465  0.32214  Biso   1.000  C
  C231     1.0000 0.65487  0.55535  0.82214  Biso   1.000  C
  C232     1.0000 0.34513  0.44465  0.17786  Biso   1.000  C
  C233     1.0000 0.90350  0.41678  0.28736  Biso   1.000  C
  C234     1.0000 0.09650  0.58322  0.71264  Biso   1.000  C
  C235     1.0000 0.59650  0.91678  0.21264  Biso   1.000  C
  C236     1.0000 0.40350  0.08322  0.78736  Biso   1.000  C
  C237     1.0000 0.90350  0.08322  0.71264  Biso   1.000  C
  C238     1.0000 0.09650  0.91678  0.28736  Biso   1.000  C
  C239     1.0000 0.59650  0.58322  0.78736  Biso   1.000  C
  C240     1.0000 0.40350  0.41678  0.21264  Biso   1.000  C
  C241     1.0000 0.89090  0.36022  0.24868  Biso   1.000  C
  C242     1.0000 0.10910  0.63978  0.75132  Biso   1.000  C
  C243     1.0000 0.60910  0.86022  0.25132  Biso   1.000  C
  C244     1.0000 0.39090  0.13978  0.74868  Biso   1.000  C
  C245     1.0000 0.89090  0.13978  0.75132  Biso   1.000  C
  C246     1.0000 0.10910  0.86022  0.24868  Biso   1.000  C
  C247     1.0000 0.60910  0.63978  0.74868  Biso   1.000  C
  C248     1.0000 0.39090  0.36022  0.25132  Biso   1.000  C
  C249     1.0000 0.81829  0.33133  0.24523  Biso   1.000  C
  C250     1.0000 0.18171  0.66867  0.75477  Biso   1.000  C
  C251     1.0000 0.68171  0.83133  0.25477  Biso   1.000  C
  C252     1.0000 0.31829  0.16867  0.74523  Biso   1.000  C
  C253     1.0000 0.81829  0.16867  0.75477  Biso   1.000  C
  C254     1.0000 0.18171  0.83133  0.24523  Biso   1.000  C
  C255     1.0000 0.68171  0.66867  0.74523  Biso   1.000  C
  C256     1.0000 0.31829  0.33133  0.25477  Biso   1.000  C
  H113     1.0000 0.80903  0.29383  0.21893  Biso   1.000  H
  H114     1.0000 0.19097  0.70617  0.78107  Biso   1.000  H
  H115     1.0000 0.69097  0.79383  0.28107  Biso   1.000  H
  H116     1.0000 0.30903  0.20617  0.71893  Biso   1.000  H
  H117     1.0000 0.80903  0.20617  0.78107  Biso   1.000  H
  H118     1.0000 0.19097  0.79383  0.21893  Biso   1.000  H
  H119     1.0000 0.69097  0.70617  0.71893  Biso   1.000  H
  H120     1.0000 0.30903  0.29383  0.28107  Biso   1.000  H
  O25      1.0000 0.85687  0.50073  0.35963  Biso   1.000  O
  O26      1.0000 0.14313  0.49927  0.64037  Biso   1.000  O
  O27      1.0000 0.64313  0.00073  0.14037  Biso   1.000  O
  O28      1.0000 0.35687  0.99927  0.85963  Biso   1.000  O
  O29      1.0000 0.85687  0.99927  0.64037  Biso   1.000  O
  O30      1.0000 0.14313  0.00073  0.35963  Biso   1.000  O
  O31      1.0000 0.64313  0.49927  0.85963  Biso   1.000  O
  O32      1.0000 0.35687  0.50073  0.14037  Biso   1.000  O
  H121     1.0000 0.81795  0.50945  0.37852  Biso   1.000  H
  H122     1.0000 0.18205  0.49055  0.62148  Biso   1.000  H
  H123     1.0000 0.68205  0.00944  0.12148  Biso   1.000  H
  H124     1.0000 0.31795  0.99055  0.87852  Biso   1.000  H
  H125     1.0000 0.81795  0.99055  0.62148  Biso   1.000  H
  H126     1.0000 0.18205  0.00944  0.37852  Biso   1.000  H
  H127     1.0000 0.68205  0.49055  0.87852  Biso   1.000  H
  H128     1.0000 0.31795  0.50945  0.12148  Biso   1.000  H
  O33      1.0000 0.97357  0.44694  0.29237  Biso   1.000  O
  O34      1.0000 0.02643  0.55306  0.70763  Biso   1.000  O
  O35      1.0000 0.52643  0.94694  0.20763  Biso   1.000  O
  O36      1.0000 0.47357  0.05306  0.79237  Biso   1.000  O
  O37      1.0000 0.97357  0.05306  0.70763  Biso   1.000  O
  O38      1.0000 0.02643  0.94694  0.29237  Biso   1.000  O
  O39      1.0000 0.52643  0.55306  0.79237  Biso   1.000  O
  O40      1.0000 0.47357  0.44694  0.20763  Biso   1.000  O
  H129     1.0000 0.00362  0.42555  0.27070  Biso   1.000  H
  H130     1.0000 0.99638  0.57445  0.72930  Biso   1.000  H
  H131     1.0000 0.49638  0.92555  0.22930  Biso   1.000  H
  H132     1.0000 0.50362  0.07445  0.77070  Biso   1.000  H
  H133     1.0000 0.00362  0.07445  0.72930  Biso   1.000  H
  H134     1.0000 0.99638  0.92555  0.27070  Biso   1.000  H
  H135     1.0000 0.49638  0.57445  0.77070  Biso   1.000  H
  H136     1.0000 0.50362  0.42555  0.22930  Biso   1.000  H
  O41      1.0000 0.94968  0.33531  0.21604  Biso   1.000  O
  O42      1.0000 0.05032  0.66469  0.78396  Biso   1.000  O
  O43      1.0000 0.55032  0.83531  0.28396  Biso   1.000  O
  O44      1.0000 0.44968  0.16469  0.71604  Biso   1.000  O
  O45      1.0000 0.94968  0.16469  0.78396  Biso   1.000  O
  O46      1.0000 0.05032  0.83531  0.21604  Biso   1.000  O
  O47      1.0000 0.55032  0.66469  0.71604  Biso   1.000  O
  O48      1.0000 0.44968  0.33531  0.28396  Biso   1.000  O
  C257     1.0000 0.49924  0.34826  0.04424  Biso   1.000  C
  C258     1.0000 0.50076  0.65174  0.95576  Biso   1.000  C
  C259     1.0000 0.00076  0.84826  0.45576  Biso   1.000  C
  C260     1.0000 0.99924  0.15174  0.54424  Biso   1.000  C
  C261     1.0000 0.49924  0.15174  0.95576  Biso   1.000  C
  C262     1.0000 0.50076  0.84826  0.04424  Biso   1.000  C
  C263     1.0000 0.00076  0.65174  0.54424  Biso   1.000  C
  C264     1.0000 0.99924  0.34826  0.45576  Biso   1.000  C
  C265     1.0000 0.55610  0.33560  0.00197  Biso   1.000  C
  C266     1.0000 0.44390  0.66440  0.99803  Biso   1.000  C
  C267     1.0000 0.94390  0.83560  0.49803  Biso   1.000  C
  C268     1.0000 0.05610  0.16440  0.50197  Biso   1.000  C
  C269     1.0000 0.55610  0.16440  0.99803  Biso   1.000  C
  C270     1.0000 0.44390  0.83560  0.00197  Biso   1.000  C
  C271     1.0000 0.94390  0.66440  0.50197  Biso   1.000  C
  C272     1.0000 0.05610  0.33560  0.49803  Biso   1.000  C
  H137     1.0000 0.59611  0.30608  0.01210  Biso   1.000  H
  H138     1.0000 0.40389  0.69392  0.98790  Biso   1.000  H
  H139     1.0000 0.90389  0.80608  0.48790  Biso   1.000  H
  H140     1.0000 0.09611  0.19392  0.51210  Biso   1.000  H
  H141     1.0000 0.59611  0.19392  0.98790  Biso   1.000  H
  H142     1.0000 0.40389  0.80608  0.01210  Biso   1.000  H
  H143     1.0000 0.90389  0.69392  0.51210  Biso   1.000  H
  H144     1.0000 0.09611  0.30608  0.48790  Biso   1.000  H
  C273     1.0000 0.55335  0.36670  0.94471  Biso   1.000  C
  C274     1.0000 0.44665  0.63330  0.05529  Biso   1.000  C
  C275     1.0000 0.94665  0.86670  0.55529  Biso   1.000  C
  C276     1.0000 0.05335  0.13330  0.44471  Biso   1.000  C
  C277     1.0000 0.55335  0.13330  0.05529  Biso   1.000  C
  C278     1.0000 0.44665  0.86670  0.94471  Biso   1.000  C
  C279     1.0000 0.94665  0.63330  0.44471  Biso   1.000  C
  C280     1.0000 0.05335  0.36670  0.55529  Biso   1.000  C
  C281     1.0000 0.49580  0.41190  0.93045  Biso   1.000  C
  C282     1.0000 0.50420  0.58810  0.06955  Biso   1.000  C
  C283     1.0000 0.00420  0.91190  0.56955  Biso   1.000  C
  C284     1.0000 0.99580  0.08810  0.43045  Biso   1.000  C
  C285     1.0000 0.49580  0.08810  0.06955  Biso   1.000  C
  C286     1.0000 0.50420  0.91190  0.93045  Biso   1.000  C
  C287     1.0000 0.00420  0.58810  0.43045  Biso   1.000  C
  C288     1.0000 0.99580  0.41190  0.56955  Biso   1.000  C
  C289     1.0000 0.43940  0.42569  0.97250  Biso   1.000  C
  C290     1.0000 0.56060  0.57431  0.02750  Biso   1.000  C
  C291     1.0000 0.06060  0.92569  0.52750  Biso   1.000  C
  C292     1.0000 0.93940  0.07431  0.47250  Biso   1.000  C
  C293     1.0000 0.43940  0.07431  0.02750  Biso   1.000  C
  C294     1.0000 0.56060  0.92569  0.97250  Biso   1.000  C
  C295     1.0000 0.06060  0.57431  0.47250  Biso   1.000  C
  C296     1.0000 0.93940  0.42569  0.52750  Biso   1.000  C
  C297     1.0000 0.44004  0.39352  0.02953  Biso   1.000  C
  C298     1.0000 0.55996  0.60648  0.97047  Biso   1.000  C
  C299     1.0000 0.05996  0.89352  0.47047  Biso   1.000  C
  C300     1.0000 0.94004  0.10648  0.52953  Biso   1.000  C
  C301     1.0000 0.44004  0.10648  0.97047  Biso   1.000  C
  C302     1.0000 0.55996  0.89352  0.02953  Biso   1.000  C
  C303     1.0000 0.05996  0.60648  0.52953  Biso   1.000  C
  C304     1.0000 0.94004  0.39352  0.47047  Biso   1.000  C
  H145     1.0000 0.40150  0.40207  0.05748  Biso   1.000  H
  H146     1.0000 0.59850  0.59793  0.94252  Biso   1.000  H
  H147     1.0000 0.09850  0.90207  0.44252  Biso   1.000  H
  H148     1.0000 0.90150  0.09793  0.55748  Biso   1.000  H
  H149     1.0000 0.40150  0.09793  0.94252  Biso   1.000  H
  H150     1.0000 0.59850  0.90207  0.05748  Biso   1.000  H
  H151     1.0000 0.09850  0.59793  0.55748  Biso   1.000  H
  H152     1.0000 0.90150  0.40207  0.44252  Biso   1.000  H
  O49      1.0000 0.60732  0.35344  0.90155  Biso   1.000  O
  O50      1.0000 0.39268  0.64656  0.09845  Biso   1.000  O
  O51      1.0000 0.89268  0.85344  0.59845  Biso   1.000  O
  O52      1.0000 0.10732  0.14656  0.40155  Biso   1.000  O
  O53      1.0000 0.60732  0.14656  0.09845  Biso   1.000  O
  O54      1.0000 0.39268  0.85344  0.90155  Biso   1.000  O
  O55      1.0000 0.89268  0.64656  0.40155  Biso   1.000  O
  O56      1.0000 0.10732  0.35344  0.59845  Biso   1.000  O
  H153     1.0000 0.61668  0.31117  0.90091  Biso   1.000  H
  H154     1.0000 0.38332  0.68883  0.09909  Biso   1.000  H
  H155     1.0000 0.88332  0.81117  0.59909  Biso   1.000  H
  H156     1.0000 0.11668  0.18883  0.40091  Biso   1.000  H
  H157     1.0000 0.61668  0.18883  0.09909  Biso   1.000  H
  H158     1.0000 0.38332  0.81117  0.90091  Biso   1.000  H
  H159     1.0000 0.88332  0.68883  0.40091  Biso   1.000  H
  H160     1.0000 0.11668  0.31117  0.59909  Biso   1.000  H
  O57      1.0000 0.49587  0.44387  0.87415  Biso   1.000  O
  O58      1.0000 0.50413  0.55613  0.12585  Biso   1.000  O
  O59      1.0000 0.00413  0.94387  0.62585  Biso   1.000  O
  O60      1.0000 0.99587  0.05613  0.37415  Biso   1.000  O
  O61      1.0000 0.49587  0.05613  0.12585  Biso   1.000  O
  O62      1.0000 0.50413  0.94387  0.87415  Biso   1.000  O
  O63      1.0000 0.00413  0.55613  0.37415  Biso   1.000  O
  O64      1.0000 0.99587  0.44387  0.62585  Biso   1.000  O
  H161     1.0000 0.45793  0.46833  0.87067  Biso   1.000  H
  H162     1.0000 0.54207  0.53167  0.12934  Biso   1.000  H
  H163     1.0000 0.04207  0.96833  0.62933  Biso   1.000  H
  H164     1.0000 0.95793  0.03167  0.37066  Biso   1.000  H
  H165     1.0000 0.45793  0.03167  0.12934  Biso   1.000  H
  H166     1.0000 0.54207  0.96833  0.87067  Biso   1.000  H
  H167     1.0000 0.04207  0.53167  0.37066  Biso   1.000  H
  H168     1.0000 0.95793  0.46833  0.62933  Biso   1.000  H
  O65      1.0000 0.38487  0.47085  0.95270  Biso   1.000  O
  O66      1.0000 0.61513  0.52915  0.04730  Biso   1.000  O
  O67      1.0000 0.11513  0.97085  0.54730  Biso   1.000  O
  O68      1.0000 0.88487  0.02915  0.45270  Biso   1.000  O
  O69      1.0000 0.38487  0.02915  0.04730  Biso   1.000  O
  O70      1.0000 0.61513  0.97085  0.95270  Biso   1.000  O
  O71      1.0000 0.11513  0.52915  0.45270  Biso   1.000  O
  O72      1.0000 0.88487  0.47085  0.54730  Biso   1.000  O
  H169     1.0000 0.35139  0.47356  0.97852  Biso   1.000  H
  H170     1.0000 0.64861  0.52644  0.02148  Biso   1.000  H
  H171     1.0000 0.14861  0.97356  0.52148  Biso   1.000  H
  H172     1.0000 0.85139  0.02644  0.47852  Biso   1.000  H
  H173     1.0000 0.35139  0.02644  0.02148  Biso   1.000  H
  H174     1.0000 0.64861  0.97356  0.97852  Biso   1.000  H
  H175     1.0000 0.14861  0.52644  0.47852  Biso   1.000  H
  H176     1.0000 0.85139  0.47356  0.52148  Biso   1.000  H
  C305     1.0000 0.27440  0.11743  0.21463  Biso   1.000  C
  C306     1.0000 0.72560  0.88257  0.78537  Biso   1.000  C
  C307     1.0000 0.22560  0.61743  0.28537  Biso   1.000  C
  C308     1.0000 0.77440  0.38257  0.71463  Biso   1.000  C
  C309     1.0000 0.27440  0.38257  0.78537  Biso   1.000  C
  C310     1.0000 0.72560  0.61743  0.21463  Biso   1.000  C
  C311     1.0000 0.22560  0.88257  0.71463  Biso   1.000  C
  C312     1.0000 0.77440  0.11743  0.28537  Biso   1.000  C
  C313     1.0000 0.26230  0.06611  0.17037  Biso   1.000  C
  C314     1.0000 0.73770  0.93389  0.82963  Biso   1.000  C
  C315     1.0000 0.23770  0.56611  0.32963  Biso   1.000  C
  C316     1.0000 0.76230  0.43389  0.67037  Biso   1.000  C
  C317     1.0000 0.26230  0.43389  0.82963  Biso   1.000  C
  C318     1.0000 0.73770  0.56611  0.17037  Biso   1.000  C
  C319     1.0000 0.23770  0.93389  0.67037  Biso   1.000  C
  C320     1.0000 0.76230  0.06611  0.32963  Biso   1.000  C
  H177     1.0000 0.30220  0.05057  0.14619  Biso   1.000  H
  H178     1.0000 0.69780  0.94943  0.85381  Biso   1.000  H
  H179     1.0000 0.19780  0.55057  0.35381  Biso   1.000  H
  H180     1.0000 0.80220  0.44943  0.64619  Biso   1.000  H
  H181     1.0000 0.30220  0.44943  0.85381  Biso   1.000  H
  H182     1.0000 0.69780  0.55057  0.14619  Biso   1.000  H
  H183     1.0000 0.19780  0.94943  0.64619  Biso   1.000  H
  H184     1.0000 0.80220  0.05057  0.35381  Biso   1.000  H
  C321     1.0000 0.19110  0.03834  0.16240  Biso   1.000  C
  C322     1.0000 0.80890  0.96166  0.83760  Biso   1.000  C
  C323     1.0000 0.30890  0.53834  0.33760  Biso   1.000  C
  C324     1.0000 0.69110  0.46166  0.66240  Biso   1.000  C
  C325     1.0000 0.19110  0.46166  0.83760  Biso   1.000  C
  C326     1.0000 0.80890  0.53834  0.16240  Biso   1.000  C
  C327     1.0000 0.30890  0.96166  0.66240  Biso   1.000  C
  C328     1.0000 0.69110  0.03834  0.33760  Biso   1.000  C
  C329     1.0000 0.13150  0.06120  0.19810  Biso   1.000  C
  C330     1.0000 0.86850  0.93880  0.80190  Biso   1.000  C
  C331     1.0000 0.36850  0.56120  0.30190  Biso   1.000  C
  C332     1.0000 0.63150  0.43880  0.69810  Biso   1.000  C
  C333     1.0000 0.13150  0.43880  0.80190  Biso   1.000  C
  C334     1.0000 0.86850  0.56120  0.19810  Biso   1.000  C
  C335     1.0000 0.36850  0.93880  0.69810  Biso   1.000  C
  C336     1.0000 0.63150  0.06120  0.30190  Biso   1.000  C
  C337     1.0000 0.14334  0.11160  0.24260  Biso   1.000  C
  C338     1.0000 0.85666  0.88840  0.75740  Biso   1.000  C
  C339     1.0000 0.35666  0.61160  0.25740  Biso   1.000  C
  C340     1.0000 0.64334  0.38840  0.74260  Biso   1.000  C
  C341     1.0000 0.14334  0.38840  0.75740  Biso   1.000  C
  C342     1.0000 0.85666  0.61160  0.24260  Biso   1.000  C
  C343     1.0000 0.35666  0.88840  0.74260  Biso   1.000  C
  C344     1.0000 0.64334  0.11160  0.25740  Biso   1.000  C
  C345     1.0000 0.21490  0.14010  0.25119  Biso   1.000  C
  C346     1.0000 0.78510  0.85990  0.74881  Biso   1.000  C
  C347     1.0000 0.28510  0.64010  0.24881  Biso   1.000  C
  C348     1.0000 0.71490  0.35990  0.75119  Biso   1.000  C
  C349     1.0000 0.21490  0.35990  0.74881  Biso   1.000  C
  C350     1.0000 0.78510  0.64010  0.25119  Biso   1.000  C
  C351     1.0000 0.28510  0.85990  0.75119  Biso   1.000  C
  C352     1.0000 0.71490  0.14010  0.24881  Biso   1.000  C
  H185     1.0000 0.22295  0.17402  0.28115  Biso   1.000  H
  H186     1.0000 0.77705  0.82598  0.71885  Biso   1.000  H
  H187     1.0000 0.27705  0.67402  0.21885  Biso   1.000  H
  H188     1.0000 0.72295  0.32598  0.78115  Biso   1.000  H
  H189     1.0000 0.22295  0.32598  0.71885  Biso   1.000  H
  H190     1.0000 0.77705  0.67402  0.28115  Biso   1.000  H
  H191     1.0000 0.27705  0.82598  0.78115  Biso   1.000  H
  H192     1.0000 0.72295  0.17402  0.21885  Biso   1.000  H
  O73      1.0000 0.17900  0.98746  0.11945  Biso   1.000  O
  O74      1.0000 0.82100  0.01254  0.88055  Biso   1.000  O
  O75      1.0000 0.32100  0.48746  0.38055  Biso   1.000  O
  O76      1.0000 0.67900  0.51254  0.61945  Biso   1.000  O
  O77      1.0000 0.17900  0.51254  0.88055  Biso   1.000  O
  O78      1.0000 0.82100  0.48746  0.11945  Biso   1.000  O
  O79      1.0000 0.32100  0.01254  0.61945  Biso   1.000  O
  O80      1.0000 0.67900  0.98746  0.38055  Biso   1.000  O
  H193     1.0000 0.13689  0.97035  0.12433  Biso   1.000  H
  H194     1.0000 0.86311  0.02965  0.87567  Biso   1.000  H
  H195     1.0000 0.36311  0.47035  0.37567  Biso   1.000  H
  H196     1.0000 0.63689  0.52965  0.62433  Biso   1.000  H
  H197     1.0000 0.13689  0.52965  0.87567  Biso   1.000  H
  H198     1.0000 0.86311  0.47035  0.12433  Biso   1.000  H
  H199     1.0000 0.36311  0.02965  0.62433  Biso   1.000  H
  H200     1.0000 0.63689  0.97035  0.37567  Biso   1.000  H
  O81      1.0000 0.06107  0.03369  0.18832  Biso   1.000  O
  O82      1.0000 0.93893  0.96631  0.81168  Biso   1.000  O
  O83      1.0000 0.43893  0.53369  0.31168  Biso   1.000  O
  O84      1.0000 0.56107  0.46631  0.68832  Biso   1.000  O
  O85      1.0000 0.06107  0.46631  0.81168  Biso   1.000  O
  O86      1.0000 0.93893  0.53369  0.18832  Biso   1.000  O
  O87      1.0000 0.43893  0.96631  0.68832  Biso   1.000  O
  O88      1.0000 0.56107  0.03369  0.31168  Biso   1.000  O
  H201     1.0000 0.03111  0.05103  0.21265  Biso   1.000  H
  H202     1.0000 0.96889  0.94897  0.78735  Biso   1.000  H
  H203     1.0000 0.46889  0.55103  0.28736  Biso   1.000  H
  H204     1.0000 0.53111  0.44897  0.71264  Biso   1.000  H
  H205     1.0000 0.03111  0.44897  0.78735  Biso   1.000  H
  H206     1.0000 0.96889  0.55103  0.21265  Biso   1.000  H
  H207     1.0000 0.46889  0.94897  0.71264  Biso   1.000  H
  H208     1.0000 0.53111  0.05103  0.28736  Biso   1.000  H
  O89      1.0000 0.08239  0.13406  0.27724  Biso   1.000  O
  O90      1.0000 0.91761  0.86594  0.72276  Biso   1.000  O
  O91      1.0000 0.41761  0.63406  0.22276  Biso   1.000  O
  O92      1.0000 0.58239  0.36594  0.77724  Biso   1.000  O
  O93      1.0000 0.08239  0.36594  0.72276  Biso   1.000  O
  O94      1.0000 0.91761  0.63406  0.27724  Biso   1.000  O
  O95      1.0000 0.41761  0.86594  0.77724  Biso   1.000  O
  O96      1.0000 0.58239  0.13406  0.22276  Biso   1.000  O
  H209     1.0000 0.07191  0.17477  0.26810  Biso   1.000  H
  H210     1.0000 0.92809  0.82523  0.73190  Biso   1.000  H
  H211     1.0000 0.42809  0.67477  0.23190  Biso   1.000  H
  H212     1.0000 0.57191  0.32523  0.76809  Biso   1.000  H
  H213     1.0000 0.07191  0.32523  0.73190  Biso   1.000  H
  H214     1.0000 0.92809  0.67477  0.26810  Biso   1.000  H
  H215     1.0000 0.42809  0.82523  0.76809  Biso   1.000  H
  H216     1.0000 0.57191  0.17477  0.23190  Biso   1.000  H
