data_image0
_cell_length_a       14.6465
_cell_length_b       14.6465
_cell_length_c       41.974
_cell_angle_alpha    90
_cell_angle_beta     90
_cell_angle_gamma    120

_symmetry_space_group_name_H-M    "P 1"
_symmetry_int_tables_number       1

loop_
  _symmetry_equiv_pos_as_xyz
  'x, y, z'

loop_
  _atom_site_label
  _atom_site_occupancy
  _atom_site_fract_x
  _atom_site_fract_y
  _atom_site_fract_z
  _atom_site_thermal_displace_type
  _atom_site_B_iso_or_equiv
  _atom_site_type_symbol
  Zn1      1.0000 0.26901  0.32634  0.01061  Biso   1.000  Zn
  Zn2      1.0000 0.67366  0.94267  0.34394  Biso   1.000  Zn
  Zn3      1.0000 0.05733  0.73099  0.67727  Biso   1.000  Zn
  Zn4      1.0000 0.73099  0.67366  0.51061  Biso   1.000  Zn
  Zn5      1.0000 0.32634  0.05733  0.84394  Biso   1.000  Zn
  Zn6      1.0000 0.94267  0.26901  0.17727  Biso   1.000  Zn
  Zn7      1.0000 0.32634  0.26901  0.32273  Biso   1.000  Zn
  Zn8      1.0000 0.94267  0.67366  0.98939  Biso   1.000  Zn
  Zn9      1.0000 0.73099  0.05733  0.65606  Biso   1.000  Zn
  Zn10     1.0000 0.67366  0.73099  0.82273  Biso   1.000  Zn
  Zn11     1.0000 0.05733  0.32634  0.48939  Biso   1.000  Zn
  Zn12     1.0000 0.26901  0.94267  0.15606  Biso   1.000  Zn
  Cu1      1.0000 0.27782  0.46927  0.12214  Biso   1.000  Cu
  Cu2      1.0000 0.53073  0.80855  0.45548  Biso   1.000  Cu
  Cu3      1.0000 0.19145  0.72218  0.78881  Biso   1.000  Cu
  Cu4      1.0000 0.72218  0.53073  0.62214  Biso   1.000  Cu
  Cu5      1.0000 0.46927  0.19145  0.95548  Biso   1.000  Cu
  Cu6      1.0000 0.80855  0.27782  0.28881  Biso   1.000  Cu
  Cu7      1.0000 0.46927  0.27782  0.21119  Biso   1.000  Cu
  Cu8      1.0000 0.80855  0.53073  0.87786  Biso   1.000  Cu
  Cu9      1.0000 0.72218  0.19145  0.54452  Biso   1.000  Cu
  Cu10     1.0000 0.53073  0.72218  0.71119  Biso   1.000  Cu
  Cu11     1.0000 0.19145  0.46927  0.37786  Biso   1.000  Cu
  Cu12     1.0000 0.27782  0.80855  0.04452  Biso   1.000  Cu
  Cu13     1.0000 0.09811  0.38530  0.09048  Biso   1.000  Cu
  Cu14     1.0000 0.61470  0.71281  0.42381  Biso   1.000  Cu
  Cu15     1.0000 0.28719  0.90189  0.75715  Biso   1.000  Cu
  Cu16     1.0000 0.90189  0.61470  0.59048  Biso   1.000  Cu
  Cu17     1.0000 0.38530  0.28719  0.92381  Biso   1.000  Cu
  Cu18     1.0000 0.71281  0.09811  0.25715  Biso   1.000  Cu
  Cu19     1.0000 0.38530  0.09811  0.24285  Biso   1.000  Cu
  Cu20     1.0000 0.71281  0.61470  0.90952  Biso   1.000  Cu
  Cu21     1.0000 0.90189  0.28719  0.57619  Biso   1.000  Cu
  Cu22     1.0000 0.61470  0.90189  0.74285  Biso   1.000  Cu
  Cu23     1.0000 0.28719  0.38530  0.40952  Biso   1.000  Cu
  Cu24     1.0000 0.09811  0.71281  0.07619  Biso   1.000  Cu
  Cu25     1.0000 0.75860  0.04994  0.07866  Biso   1.000  Cu
  Cu26     1.0000 0.95006  0.70866  0.41199  Biso   1.000  Cu
  Cu27     1.0000 0.29134  0.24140  0.74533  Biso   1.000  Cu
  Cu28     1.0000 0.24140  0.95006  0.57866  Biso   1.000  Cu
  Cu29     1.0000 0.04994  0.29134  0.91199  Biso   1.000  Cu
  Cu30     1.0000 0.70866  0.75860  0.24533  Biso   1.000  Cu
  Cu31     1.0000 0.04994  0.75860  0.25467  Biso   1.000  Cu
  Cu32     1.0000 0.70866  0.95006  0.92134  Biso   1.000  Cu
  Cu33     1.0000 0.24140  0.29134  0.58801  Biso   1.000  Cu
  Cu34     1.0000 0.95006  0.24140  0.75467  Biso   1.000  Cu
  Cu35     1.0000 0.29134  0.04994  0.42134  Biso   1.000  Cu
  Cu36     1.0000 0.75860  0.70866  0.08801  Biso   1.000  Cu
  Cu37     1.0000 0.43533  0.07017  0.05409  Biso   1.000  Cu
  Cu38     1.0000 0.92983  0.36516  0.38743  Biso   1.000  Cu
  Cu39     1.0000 0.63484  0.56467  0.72076  Biso   1.000  Cu
  Cu40     1.0000 0.56467  0.92983  0.55410  Biso   1.000  Cu
  Cu41     1.0000 0.07017  0.63484  0.88743  Biso   1.000  Cu
  Cu42     1.0000 0.36516  0.43533  0.22076  Biso   1.000  Cu
  Cu43     1.0000 0.07017  0.43533  0.27924  Biso   1.000  Cu
  Cu44     1.0000 0.36516  0.92983  0.94590  Biso   1.000  Cu
  Cu45     1.0000 0.56467  0.63484  0.61257  Biso   1.000  Cu
  Cu46     1.0000 0.92983  0.56467  0.77924  Biso   1.000  Cu
  Cu47     1.0000 0.63484  0.07017  0.44590  Biso   1.000  Cu
  Cu48     1.0000 0.43533  0.36516  0.11257  Biso   1.000  Cu
  N1       1.0000 0.99930  0.16920  0.19142  Biso   1.000  N
  N2       1.0000 0.83080  0.83010  0.52475  Biso   1.000  N
  N3       1.0000 0.16990  0.00070  0.85809  Biso   1.000  N
  N4       1.0000 0.00070  0.83080  0.69142  Biso   1.000  N
  N5       1.0000 0.16920  0.16990  0.02475  Biso   1.000  N
  N6       1.0000 0.83010  0.99930  0.35809  Biso   1.000  N
  N7       1.0000 0.16920  0.99930  0.14191  Biso   1.000  N
  N8       1.0000 0.83010  0.83080  0.80858  Biso   1.000  N
  N9       1.0000 0.00070  0.16990  0.47525  Biso   1.000  N
  N10      1.0000 0.83080  0.00070  0.64191  Biso   1.000  N
  N11      1.0000 0.16990  0.16920  0.30858  Biso   1.000  N
  N12      1.0000 0.99930  0.83010  0.97525  Biso   1.000  N
  N13      1.0000 0.81810  0.12650  0.16909  Biso   1.000  N
  N14      1.0000 0.87350  0.69160  0.50242  Biso   1.000  N
  N15      1.0000 0.30840  0.18190  0.83576  Biso   1.000  N
  N16      1.0000 0.18190  0.87350  0.66909  Biso   1.000  N
  N17      1.0000 0.12650  0.30840  0.00242  Biso   1.000  N
  N18      1.0000 0.69160  0.81810  0.33576  Biso   1.000  N
  N19      1.0000 0.12650  0.81810  0.16424  Biso   1.000  N
  N20      1.0000 0.69160  0.87350  0.83091  Biso   1.000  N
  N21      1.0000 0.18190  0.30840  0.49758  Biso   1.000  N
  N22      1.0000 0.87350  0.18190  0.66424  Biso   1.000  N
  N23      1.0000 0.30840  0.12650  0.33091  Biso   1.000  N
  N24      1.0000 0.81810  0.69160  0.99758  Biso   1.000  N
  N25      1.0000 0.84420  0.30290  0.14880  Biso   1.000  N
  N26      1.0000 0.69710  0.54130  0.48213  Biso   1.000  N
  N27      1.0000 0.45870  0.15580  0.81547  Biso   1.000  N
  N28      1.0000 0.15580  0.69710  0.64880  Biso   1.000  N
  N29      1.0000 0.30290  0.45870  0.98213  Biso   1.000  N
  N30      1.0000 0.54130  0.84420  0.31547  Biso   1.000  N
  N31      1.0000 0.30290  0.84420  0.18453  Biso   1.000  N
  N32      1.0000 0.54130  0.69710  0.85120  Biso   1.000  N
  N33      1.0000 0.15580  0.45870  0.51787  Biso   1.000  N
  N34      1.0000 0.69710  0.15580  0.68453  Biso   1.000  N
  N35      1.0000 0.45870  0.30290  0.35120  Biso   1.000  N
  N36      1.0000 0.84420  0.54130  0.01787  Biso   1.000  N
  N37      1.0000 0.39620  0.61830  0.13305  Biso   1.000  N
  N38      1.0000 0.38170  0.77790  0.46638  Biso   1.000  N
  N39      1.0000 0.22210  0.60380  0.79972  Biso   1.000  N
  N40      1.0000 0.60380  0.38170  0.63305  Biso   1.000  N
  N41      1.0000 0.61830  0.22210  0.96638  Biso   1.000  N
  N42      1.0000 0.77790  0.39620  0.29972  Biso   1.000  N
  N43      1.0000 0.61830  0.39620  0.20028  Biso   1.000  N
  N44      1.0000 0.77790  0.38170  0.86695  Biso   1.000  N
  N45      1.0000 0.60380  0.22210  0.53362  Biso   1.000  N
  N46      1.0000 0.38170  0.60380  0.70028  Biso   1.000  N
  N47      1.0000 0.22210  0.61830  0.36695  Biso   1.000  N
  N48      1.0000 0.39620  0.77790  0.03362  Biso   1.000  N
  N49      1.0000 0.08050  0.38500  0.16338  Biso   1.000  N
  N50      1.0000 0.61500  0.69550  0.49671  Biso   1.000  N
  N51      1.0000 0.30450  0.91950  0.83005  Biso   1.000  N
  N52      1.0000 0.91950  0.61500  0.66338  Biso   1.000  N
  N53      1.0000 0.38500  0.30450  0.99671  Biso   1.000  N
  N54      1.0000 0.69550  0.08050  0.33005  Biso   1.000  N
  N55      1.0000 0.38500  0.08050  0.16995  Biso   1.000  N
  N56      1.0000 0.69550  0.61500  0.83662  Biso   1.000  N
  N57      1.0000 0.91950  0.30450  0.50329  Biso   1.000  N
  N58      1.0000 0.61500  0.91950  0.66995  Biso   1.000  N
  N59      1.0000 0.30450  0.38500  0.33662  Biso   1.000  N
  N60      1.0000 0.08050  0.69550  0.00329  Biso   1.000  N
  C1       1.0000 0.15530  0.41930  0.14862  Biso   1.000  C
  C2       1.0000 0.58070  0.73600  0.48195  Biso   1.000  C
  C3       1.0000 0.26400  0.84470  0.81529  Biso   1.000  C
  C4       1.0000 0.84470  0.58070  0.64862  Biso   1.000  C
  C5       1.0000 0.41930  0.26400  0.98195  Biso   1.000  C
  C6       1.0000 0.73600  0.15530  0.31529  Biso   1.000  C
  C7       1.0000 0.41930  0.15530  0.18471  Biso   1.000  C
  C8       1.0000 0.73600  0.58070  0.85138  Biso   1.000  C
  C9       1.0000 0.84470  0.26400  0.51805  Biso   1.000  C
  C10      1.0000 0.58070  0.84470  0.68471  Biso   1.000  C
  C11      1.0000 0.26400  0.41930  0.35138  Biso   1.000  C
  C12      1.0000 0.15530  0.73600  0.01805  Biso   1.000  C
  N61      1.0000 0.29880  0.39440  0.05581  Biso   1.000  N
  N62      1.0000 0.60560  0.90440  0.38914  Biso   1.000  N
  N63      1.0000 0.09560  0.70120  0.72248  Biso   1.000  N
  N64      1.0000 0.70120  0.60560  0.55581  Biso   1.000  N
  N65      1.0000 0.39440  0.09560  0.88914  Biso   1.000  N
  N66      1.0000 0.90440  0.29880  0.22248  Biso   1.000  N
  N67      1.0000 0.39440  0.29880  0.27752  Biso   1.000  N
  N68      1.0000 0.90440  0.60560  0.94419  Biso   1.000  N
  N69      1.0000 0.70120  0.09560  0.61086  Biso   1.000  N
  N70      1.0000 0.60560  0.70120  0.77752  Biso   1.000  N
  N71      1.0000 0.09560  0.39440  0.44419  Biso   1.000  N
  N72      1.0000 0.29880  0.90440  0.11086  Biso   1.000  N
  C13      1.0000 0.28890  0.41860  0.08062  Biso   1.000  C
  C14      1.0000 0.58140  0.87030  0.41395  Biso   1.000  C
  C15      1.0000 0.12970  0.71110  0.74729  Biso   1.000  C
  C16      1.0000 0.71110  0.58140  0.58062  Biso   1.000  C
  C17      1.0000 0.41860  0.12970  0.91395  Biso   1.000  C
  C18      1.0000 0.87030  0.28890  0.24729  Biso   1.000  C
  C19      1.0000 0.41860  0.28890  0.25271  Biso   1.000  C
  C20      1.0000 0.87030  0.58140  0.91938  Biso   1.000  C
  C21      1.0000 0.71110  0.12970  0.58605  Biso   1.000  C
  C22      1.0000 0.58140  0.71110  0.75271  Biso   1.000  C
  C23      1.0000 0.12970  0.41860  0.41938  Biso   1.000  C
  C24      1.0000 0.28890  0.87030  0.08605  Biso   1.000  C
  N73      1.0000 0.89750  0.17730  0.08445  Biso   1.000  N
  N74      1.0000 0.82270  0.72020  0.41778  Biso   1.000  N
  N75      1.0000 0.27980  0.10250  0.75112  Biso   1.000  N
  N76      1.0000 0.10250  0.82270  0.58445  Biso   1.000  N
  N77      1.0000 0.17730  0.27980  0.91778  Biso   1.000  N
  N78      1.0000 0.72020  0.89750  0.25112  Biso   1.000  N
  N79      1.0000 0.17730  0.89750  0.24888  Biso   1.000  N
  N80      1.0000 0.72020  0.82270  0.91555  Biso   1.000  N
  N81      1.0000 0.10250  0.27980  0.58222  Biso   1.000  N
  N82      1.0000 0.82270  0.10250  0.74888  Biso   1.000  N
  N83      1.0000 0.27980  0.17730  0.41555  Biso   1.000  N
  N84      1.0000 0.89750  0.72020  0.08222  Biso   1.000  N
  C25      1.0000 0.97920  0.25190  0.08649  Biso   1.000  C
  C26      1.0000 0.74810  0.72730  0.41982  Biso   1.000  C
  C27      1.0000 0.27270  0.02080  0.75316  Biso   1.000  C
  C28      1.0000 0.02080  0.74810  0.58649  Biso   1.000  C
  C29      1.0000 0.25190  0.27270  0.91982  Biso   1.000  C
  C30      1.0000 0.72730  0.97920  0.25316  Biso   1.000  C
  C31      1.0000 0.25190  0.97920  0.24684  Biso   1.000  C
  C32      1.0000 0.72730  0.74810  0.91351  Biso   1.000  C
  C33      1.0000 0.02080  0.27270  0.58018  Biso   1.000  C
  C34      1.0000 0.74810  0.02080  0.74684  Biso   1.000  C
  C35      1.0000 0.27270  0.25190  0.41351  Biso   1.000  C
  C36      1.0000 0.97920  0.72730  0.08018  Biso   1.000  C
  N85      1.0000 0.56010  0.06070  0.06413  Biso   1.000  N
  N86      1.0000 0.93930  0.49940  0.39746  Biso   1.000  N
  N87      1.0000 0.50060  0.43990  0.73080  Biso   1.000  N
  N88      1.0000 0.43990  0.93930  0.56413  Biso   1.000  N
  N89      1.0000 0.06070  0.50060  0.89746  Biso   1.000  N
  N90      1.0000 0.49940  0.56010  0.23080  Biso   1.000  N
  N91      1.0000 0.06070  0.56010  0.26920  Biso   1.000  N
  N92      1.0000 0.49940  0.93930  0.93587  Biso   1.000  N
  N93      1.0000 0.43990  0.50060  0.60254  Biso   1.000  N
  N94      1.0000 0.93930  0.43990  0.76920  Biso   1.000  N
  N95      1.0000 0.50060  0.06070  0.43587  Biso   1.000  N
  N96      1.0000 0.56010  0.49940  0.10254  Biso   1.000  N
  C37      1.0000 0.63650  0.05820  0.06901  Biso   1.000  C
  C38      1.0000 0.94180  0.57830  0.40234  Biso   1.000  C
  C39      1.0000 0.42170  0.36350  0.73568  Biso   1.000  C
  C40      1.0000 0.36350  0.94180  0.56901  Biso   1.000  C
  C41      1.0000 0.05820  0.42170  0.90234  Biso   1.000  C
  C42      1.0000 0.57830  0.63650  0.23568  Biso   1.000  C
  C43      1.0000 0.05820  0.63650  0.26432  Biso   1.000  C
  C44      1.0000 0.57830  0.94180  0.93099  Biso   1.000  C
  C45      1.0000 0.36350  0.42170  0.59766  Biso   1.000  C
  C46      1.0000 0.94180  0.36350  0.76432  Biso   1.000  C
  C47      1.0000 0.42170  0.05820  0.43099  Biso   1.000  C
  C48      1.0000 0.63650  0.57830  0.09766  Biso   1.000  C
  N97      0.5000 0.12720  0.52510  0.08398  Biso   1.000  N
  N98      0.5000 0.47490  0.60210  0.41731  Biso   1.000  N
  N99      0.5000 0.39790  0.87280  0.75065  Biso   1.000  N
  N100     0.5000 0.87280  0.47490  0.58398  Biso   1.000  N
  N101     0.5000 0.52510  0.39790  0.91731  Biso   1.000  N
  N102     0.5000 0.60210  0.12720  0.25065  Biso   1.000  N
  N103     0.5000 0.52510  0.12720  0.24935  Biso   1.000  N
  N104     0.5000 0.60210  0.47490  0.91602  Biso   1.000  N
  N105     0.5000 0.87280  0.39790  0.58269  Biso   1.000  N
  N106     0.5000 0.47490  0.87280  0.74935  Biso   1.000  N
  N107     0.5000 0.39790  0.52510  0.41602  Biso   1.000  N
  N108     0.5000 0.12720  0.60210  0.08269  Biso   1.000  N
  N109     0.5000 0.76010  0.92020  0.08213  Biso   1.000  N
  N110     0.5000 0.07980  0.83990  0.41546  Biso   1.000  N
  N111     0.5000 0.16010  0.23990  0.74880  Biso   1.000  N
  N112     0.5000 0.23990  0.07980  0.58213  Biso   1.000  N
  N113     0.5000 0.92020  0.16010  0.91546  Biso   1.000  N
  N114     0.5000 0.83990  0.76010  0.24880  Biso   1.000  N
  N115     0.5000 0.92020  0.76010  0.25120  Biso   1.000  N
  N116     0.5000 0.83990  0.07980  0.91787  Biso   1.000  N
  N117     0.5000 0.23990  0.16010  0.58454  Biso   1.000  N
  N118     0.5000 0.07980  0.23990  0.75120  Biso   1.000  N
  N119     0.5000 0.16010  0.92020  0.41787  Biso   1.000  N
  N120     0.5000 0.76010  0.83990  0.08454  Biso   1.000  N
  N121     0.5000 0.42250  0.17680  0.07680  Biso   1.000  N
  N122     0.5000 0.82320  0.24570  0.41013  Biso   1.000  N
  N123     0.5000 0.75430  0.57750  0.74347  Biso   1.000  N
  N124     0.5000 0.57750  0.82320  0.57680  Biso   1.000  N
  N125     0.5000 0.17680  0.75430  0.91013  Biso   1.000  N
  N126     0.5000 0.24570  0.42250  0.24347  Biso   1.000  N
  N127     0.5000 0.17680  0.42250  0.25653  Biso   1.000  N
  N128     0.5000 0.24570  0.82320  0.92320  Biso   1.000  N
  N129     0.5000 0.57750  0.75430  0.58987  Biso   1.000  N
  N130     0.5000 0.82320  0.57750  0.75653  Biso   1.000  N
  N131     0.5000 0.75430  0.17680  0.42320  Biso   1.000  N
  N132     0.5000 0.42250  0.24570  0.08987  Biso   1.000  N
  N133     0.5000 0.37190  0.00990  0.01338  Biso   1.000  N
  N134     0.5000 0.99010  0.36200  0.34671  Biso   1.000  N
  N135     0.5000 0.63800  0.62810  0.68005  Biso   1.000  N
  N136     0.5000 0.62810  0.99010  0.51338  Biso   1.000  N
  N137     0.5000 0.00990  0.63800  0.84671  Biso   1.000  N
  N138     0.5000 0.36200  0.37190  0.18005  Biso   1.000  N
  N139     0.5000 0.00990  0.37190  0.31995  Biso   1.000  N
  N140     0.5000 0.36200  0.99010  0.98662  Biso   1.000  N
  N141     0.5000 0.62810  0.63800  0.65329  Biso   1.000  N
  N142     0.5000 0.99010  0.62810  0.81995  Biso   1.000  N
  N143     0.5000 0.63800  0.00990  0.48662  Biso   1.000  N
  N144     0.5000 0.37190  0.36200  0.15329  Biso   1.000  N
  C49      1.0000 0.09600  0.19890  0.20135  Biso   1.000  C
  C50      1.0000 0.80110  0.89710  0.53468  Biso   1.000  C
  C51      1.0000 0.10290  0.90400  0.86802  Biso   1.000  C
  C52      1.0000 0.90400  0.80110  0.70135  Biso   1.000  C
  C53      1.0000 0.19890  0.10290  0.03468  Biso   1.000  C
  C54      1.0000 0.89710  0.09600  0.36802  Biso   1.000  C
  C55      1.0000 0.19890  0.09600  0.13198  Biso   1.000  C
  C56      1.0000 0.89710  0.80110  0.79865  Biso   1.000  C
  C57      1.0000 0.90400  0.10290  0.46532  Biso   1.000  C
  C58      1.0000 0.80110  0.90400  0.63198  Biso   1.000  C
  C59      1.0000 0.10290  0.19890  0.29865  Biso   1.000  C
  C60      1.0000 0.09600  0.89710  0.96532  Biso   1.000  C
  H1       1.0000 0.14640  0.27020  0.20100  Biso   1.000  H
  H2       1.0000 0.72980  0.87620  0.53433  Biso   1.000  H
  H3       1.0000 0.12380  0.85360  0.86767  Biso   1.000  H
  H4       1.0000 0.85360  0.72980  0.70100  Biso   1.000  H
  H5       1.0000 0.27020  0.12380  0.03433  Biso   1.000  H
  H6       1.0000 0.87620  0.14640  0.36767  Biso   1.000  H
  H7       1.0000 0.27020  0.14640  0.13233  Biso   1.000  H
  H8       1.0000 0.87620  0.72980  0.79900  Biso   1.000  H
  H9       1.0000 0.85360  0.12380  0.46567  Biso   1.000  H
  H10      1.0000 0.72980  0.85360  0.63233  Biso   1.000  H
  H11      1.0000 0.12380  0.27020  0.29900  Biso   1.000  H
  H12      1.0000 0.14640  0.87620  0.96567  Biso   1.000  H
  C61      1.0000 0.12480  0.12760  0.21220  Biso   1.000  C
  C62      1.0000 0.87240  0.99720  0.54553  Biso   1.000  C
  C63      1.0000 0.00280  0.87520  0.87887  Biso   1.000  C
  C64      1.0000 0.87520  0.87240  0.71220  Biso   1.000  C
  C65      1.0000 0.12760  0.00280  0.04553  Biso   1.000  C
  C66      1.0000 0.99720  0.12480  0.37887  Biso   1.000  C
  C67      1.0000 0.12760  0.12480  0.12113  Biso   1.000  C
  C68      1.0000 0.99720  0.87240  0.78780  Biso   1.000  C
  C69      1.0000 0.87520  0.00280  0.45447  Biso   1.000  C
  C70      1.0000 0.87240  0.87520  0.62113  Biso   1.000  C
  C71      1.0000 0.00280  0.12760  0.28780  Biso   1.000  C
  C72      1.0000 0.12480  0.99720  0.95447  Biso   1.000  C
  H13      1.0000 0.19380  0.15040  0.21850  Biso   1.000  H
  H14      1.0000 0.84960  0.04340  0.55183  Biso   1.000  H
  H15      1.0000 0.95660  0.80620  0.88517  Biso   1.000  H
  H16      1.0000 0.80620  0.84960  0.71850  Biso   1.000  H
  H17      1.0000 0.15040  0.95660  0.05183  Biso   1.000  H
  H18      1.0000 0.04340  0.19380  0.38517  Biso   1.000  H
  H19      1.0000 0.15040  0.19380  0.11483  Biso   1.000  H
  H20      1.0000 0.04340  0.84960  0.78150  Biso   1.000  H
  H21      1.0000 0.80620  0.95660  0.44817  Biso   1.000  H
  H22      1.0000 0.84960  0.80620  0.61483  Biso   1.000  H
  H23      1.0000 0.95660  0.15040  0.28150  Biso   1.000  H
  H24      1.0000 0.19380  0.04340  0.94817  Biso   1.000  H
  C73      1.0000 0.04930  0.02200  0.21354  Biso   1.000  C
  C74      1.0000 0.97800  0.02730  0.54687  Biso   1.000  C
  C75      1.0000 0.97270  0.95070  0.88021  Biso   1.000  C
  C76      1.0000 0.95070  0.97800  0.71354  Biso   1.000  C
  C77      1.0000 0.02200  0.97270  0.04687  Biso   1.000  C
  C78      1.0000 0.02730  0.04930  0.38021  Biso   1.000  C
  C79      1.0000 0.02200  0.04930  0.11979  Biso   1.000  C
  C80      1.0000 0.02730  0.97800  0.78646  Biso   1.000  C
  C81      1.0000 0.95070  0.97270  0.45313  Biso   1.000  C
  C82      1.0000 0.97800  0.95070  0.61979  Biso   1.000  C
  C83      1.0000 0.97270  0.02200  0.28646  Biso   1.000  C
  C84      1.0000 0.04930  0.02730  0.95313  Biso   1.000  C
  H25      1.0000 0.06640  0.97280  0.22120  Biso   1.000  H
  H26      1.0000 0.02720  0.09360  0.55453  Biso   1.000  H
  H27      1.0000 0.90640  0.93360  0.88787  Biso   1.000  H
  H28      1.0000 0.93360  0.02720  0.72120  Biso   1.000  H
  H29      1.0000 0.97280  0.90640  0.05453  Biso   1.000  H
  H30      1.0000 0.09360  0.06640  0.38787  Biso   1.000  H
  H31      1.0000 0.97280  0.06640  0.11213  Biso   1.000  H
  H32      1.0000 0.09360  0.02720  0.77880  Biso   1.000  H
  H33      1.0000 0.93360  0.90640  0.44547  Biso   1.000  H
  H34      1.0000 0.02720  0.93360  0.61213  Biso   1.000  H
  H35      1.0000 0.90640  0.97280  0.27880  Biso   1.000  H
  H36      1.0000 0.06640  0.09360  0.94547  Biso   1.000  H
  C85      1.0000 0.94760  0.99020  0.20328  Biso   1.000  C
  C86      1.0000 0.00980  0.95740  0.53661  Biso   1.000  C
  C87      1.0000 0.04260  0.05240  0.86995  Biso   1.000  C
  C88      1.0000 0.05240  0.00980  0.70328  Biso   1.000  C
  C89      1.0000 0.99020  0.04260  0.03661  Biso   1.000  C
  C90      1.0000 0.95740  0.94760  0.36995  Biso   1.000  C
  C91      1.0000 0.99020  0.94760  0.13005  Biso   1.000  C
  C92      1.0000 0.95740  0.00980  0.79672  Biso   1.000  C
  C93      1.0000 0.05240  0.04260  0.46339  Biso   1.000  C
  C94      1.0000 0.00980  0.05240  0.63005  Biso   1.000  C
  C95      1.0000 0.04260  0.99020  0.29672  Biso   1.000  C
  C96      1.0000 0.94760  0.95740  0.96339  Biso   1.000  C
  H37      1.0000 0.89540  0.91950  0.20430  Biso   1.000  H
  H38      1.0000 0.08050  0.97590  0.53763  Biso   1.000  H
  H39      1.0000 0.02410  0.10460  0.87097  Biso   1.000  H
  H40      1.0000 0.10460  0.08050  0.70430  Biso   1.000  H
  H41      1.0000 0.91950  0.02410  0.03763  Biso   1.000  H
  H42      1.0000 0.97590  0.89540  0.37097  Biso   1.000  H
  H43      1.0000 0.91950  0.89540  0.12903  Biso   1.000  H
  H44      1.0000 0.97590  0.08050  0.79570  Biso   1.000  H
  H45      1.0000 0.10460  0.02410  0.46237  Biso   1.000  H
  H46      1.0000 0.08050  0.10460  0.62903  Biso   1.000  H
  H47      1.0000 0.02410  0.91950  0.29570  Biso   1.000  H
  H48      1.0000 0.89540  0.97590  0.96237  Biso   1.000  H
  C97      1.0000 0.92480  0.06470  0.19161  Biso   1.000  C
  C98      1.0000 0.93530  0.86010  0.52494  Biso   1.000  C
  C99      1.0000 0.13990  0.07520  0.85828  Biso   1.000  C
  C100     1.0000 0.07520  0.93530  0.69161  Biso   1.000  C
  C101     1.0000 0.06470  0.13990  0.02494  Biso   1.000  C
  C102     1.0000 0.86010  0.92480  0.35828  Biso   1.000  C
  C103     1.0000 0.06470  0.92480  0.14172  Biso   1.000  C
  C104     1.0000 0.86010  0.93530  0.80839  Biso   1.000  C
  C105     1.0000 0.07520  0.13990  0.47506  Biso   1.000  C
  C106     1.0000 0.93530  0.07520  0.64172  Biso   1.000  C
  C107     1.0000 0.13990  0.06470  0.30839  Biso   1.000  C
  C108     1.0000 0.92480  0.86010  0.97506  Biso   1.000  C
  C109     1.0000 0.82400  0.04130  0.17704  Biso   1.000  C
  C110     1.0000 0.95870  0.78270  0.51037  Biso   1.000  C
  C111     1.0000 0.21730  0.17600  0.84371  Biso   1.000  C
  C112     1.0000 0.17600  0.95870  0.67704  Biso   1.000  C
  C113     1.0000 0.04130  0.21730  0.01037  Biso   1.000  C
  C114     1.0000 0.78270  0.82400  0.34371  Biso   1.000  C
  C115     1.0000 0.04130  0.82400  0.15629  Biso   1.000  C
  C116     1.0000 0.78270  0.95870  0.82296  Biso   1.000  C
  C117     1.0000 0.17600  0.21730  0.48963  Biso   1.000  C
  C118     1.0000 0.95870  0.17600  0.65629  Biso   1.000  C
  C119     1.0000 0.21730  0.04130  0.32296  Biso   1.000  C
  C120     1.0000 0.82400  0.78270  0.98963  Biso   1.000  C
  C121     1.0000 0.74210  0.94150  0.16987  Biso   1.000  C
  C122     1.0000 0.05850  0.80060  0.50320  Biso   1.000  C
  C123     1.0000 0.19940  0.25790  0.83654  Biso   1.000  C
  C124     1.0000 0.25790  0.05850  0.66987  Biso   1.000  C
  C125     1.0000 0.94150  0.19940  0.00320  Biso   1.000  C
  C126     1.0000 0.80060  0.74210  0.33654  Biso   1.000  C
  C127     1.0000 0.94150  0.74210  0.16346  Biso   1.000  C
  C128     1.0000 0.80060  0.05850  0.83013  Biso   1.000  C
  C129     1.0000 0.25790  0.19940  0.49680  Biso   1.000  C
  C130     1.0000 0.05850  0.25790  0.66346  Biso   1.000  C
  C131     1.0000 0.19940  0.94150  0.33013  Biso   1.000  C
  C132     1.0000 0.74210  0.80060  0.99680  Biso   1.000  C
  H49      1.0000 0.74720  0.88260  0.17540  Biso   1.000  H
  H50      1.0000 0.11740  0.86460  0.50873  Biso   1.000  H
  H51      1.0000 0.13540  0.25280  0.84207  Biso   1.000  H
  H52      1.0000 0.25280  0.11740  0.67540  Biso   1.000  H
  H53      1.0000 0.88260  0.13540  0.00873  Biso   1.000  H
  H54      1.0000 0.86460  0.74720  0.34207  Biso   1.000  H
  H55      1.0000 0.88260  0.74720  0.15793  Biso   1.000  H
  H56      1.0000 0.86460  0.11740  0.82460  Biso   1.000  H
  H57      1.0000 0.25280  0.13540  0.49127  Biso   1.000  H
  H58      1.0000 0.11740  0.25280  0.65793  Biso   1.000  H
  H59      1.0000 0.13540  0.88260  0.32460  Biso   1.000  H
  H60      1.0000 0.74720  0.86460  0.99127  Biso   1.000  H
  C133     1.0000 0.65150  0.92850  0.15437  Biso   1.000  C
  C134     1.0000 0.07150  0.72300  0.48770  Biso   1.000  C
  C135     1.0000 0.27700  0.34850  0.82104  Biso   1.000  C
  C136     1.0000 0.34850  0.07150  0.65437  Biso   1.000  C
  C137     1.0000 0.92850  0.27700  0.98770  Biso   1.000  C
  C138     1.0000 0.72300  0.65150  0.32104  Biso   1.000  C
  C139     1.0000 0.92850  0.65150  0.17896  Biso   1.000  C
  C140     1.0000 0.72300  0.07150  0.84563  Biso   1.000  C
  C141     1.0000 0.34850  0.27700  0.51230  Biso   1.000  C
  C142     1.0000 0.07150  0.34850  0.67896  Biso   1.000  C
  C143     1.0000 0.27700  0.92850  0.34563  Biso   1.000  C
  C144     1.0000 0.65150  0.72300  0.01230  Biso   1.000  C
  C145     1.0000 0.64760  0.01900  0.14698  Biso   1.000  C
  C146     1.0000 0.98100  0.62860  0.48031  Biso   1.000  C
  C147     1.0000 0.37140  0.35240  0.81365  Biso   1.000  C
  C148     1.0000 0.35240  0.98100  0.64698  Biso   1.000  C
  C149     1.0000 0.01900  0.37140  0.98031  Biso   1.000  C
  C150     1.0000 0.62860  0.64760  0.31365  Biso   1.000  C
  C151     1.0000 0.01900  0.64760  0.18635  Biso   1.000  C
  C152     1.0000 0.62860  0.98100  0.85302  Biso   1.000  C
  C153     1.0000 0.35240  0.37140  0.51969  Biso   1.000  C
  C154     1.0000 0.98100  0.35240  0.68635  Biso   1.000  C
  C155     1.0000 0.37140  0.01900  0.35302  Biso   1.000  C
  C156     1.0000 0.64760  0.62860  0.01969  Biso   1.000  C
  H61      1.0000 0.58820  0.01340  0.13710  Biso   1.000  H
  H62      1.0000 0.98660  0.57480  0.47043  Biso   1.000  H
  H63      1.0000 0.42520  0.41180  0.80377  Biso   1.000  H
  H64      1.0000 0.41180  0.98660  0.63710  Biso   1.000  H
  H65      1.0000 0.01340  0.42520  0.97043  Biso   1.000  H
  H66      1.0000 0.57480  0.58820  0.30377  Biso   1.000  H
  H67      1.0000 0.01340  0.58820  0.19623  Biso   1.000  H
  H68      1.0000 0.57480  0.98660  0.86290  Biso   1.000  H
  H69      1.0000 0.41180  0.42520  0.52957  Biso   1.000  H
  H70      1.0000 0.98660  0.41180  0.69623  Biso   1.000  H
  H71      1.0000 0.42520  0.01340  0.36290  Biso   1.000  H
  H72      1.0000 0.58820  0.57480  0.02957  Biso   1.000  H
  C157     1.0000 0.73300  0.11870  0.15444  Biso   1.000  C
  C158     1.0000 0.88130  0.61430  0.48777  Biso   1.000  C
  C159     1.0000 0.38570  0.26700  0.82111  Biso   1.000  C
  C160     1.0000 0.26700  0.88130  0.65444  Biso   1.000  C
  C161     1.0000 0.11870  0.38570  0.98777  Biso   1.000  C
  C162     1.0000 0.61430  0.73300  0.32111  Biso   1.000  C
  C163     1.0000 0.11870  0.73300  0.17889  Biso   1.000  C
  C164     1.0000 0.61430  0.88130  0.84556  Biso   1.000  C
  C165     1.0000 0.26700  0.38570  0.51223  Biso   1.000  C
  C166     1.0000 0.88130  0.26700  0.67889  Biso   1.000  C
  C167     1.0000 0.38570  0.11870  0.34556  Biso   1.000  C
  C168     1.0000 0.73300  0.61430  0.01223  Biso   1.000  C
  C169     1.0000 0.74580  0.22170  0.14499  Biso   1.000  C
  C170     1.0000 0.77830  0.52410  0.47832  Biso   1.000  C
  C171     1.0000 0.47590  0.25420  0.81166  Biso   1.000  C
  C172     1.0000 0.25420  0.77830  0.64499  Biso   1.000  C
  C173     1.0000 0.22170  0.47590  0.97832  Biso   1.000  C
  C174     1.0000 0.52410  0.74580  0.31166  Biso   1.000  C
  C175     1.0000 0.22170  0.74580  0.18834  Biso   1.000  C
  C176     1.0000 0.52410  0.77830  0.85501  Biso   1.000  C
  C177     1.0000 0.25420  0.47590  0.52168  Biso   1.000  C
  C178     1.0000 0.77830  0.25420  0.68834  Biso   1.000  C
  C179     1.0000 0.47590  0.22170  0.35501  Biso   1.000  C
  C180     1.0000 0.74580  0.52410  0.02168  Biso   1.000  C
  C181     1.0000 0.66510  0.23560  0.13258  Biso   1.000  C
  C182     1.0000 0.76440  0.42950  0.46591  Biso   1.000  C
  C183     1.0000 0.57050  0.33490  0.79925  Biso   1.000  C
  C184     1.0000 0.33490  0.76440  0.63258  Biso   1.000  C
  C185     1.0000 0.23560  0.57050  0.96591  Biso   1.000  C
  C186     1.0000 0.42950  0.66510  0.29925  Biso   1.000  C
  C187     1.0000 0.23560  0.66510  0.20075  Biso   1.000  C
  C188     1.0000 0.42950  0.76440  0.86742  Biso   1.000  C
  C189     1.0000 0.33490  0.57050  0.53409  Biso   1.000  C
  C190     1.0000 0.76440  0.33490  0.70075  Biso   1.000  C
  C191     1.0000 0.57050  0.23560  0.36742  Biso   1.000  C
  C192     1.0000 0.66510  0.42950  0.03409  Biso   1.000  C
  H73      1.0000 0.59630  0.17940  0.13140  Biso   1.000  H
  H74      1.0000 0.82060  0.41690  0.46473  Biso   1.000  H
  H75      1.0000 0.58310  0.40370  0.79807  Biso   1.000  H
  H76      1.0000 0.40370  0.82060  0.63140  Biso   1.000  H
  H77      1.0000 0.17940  0.58310  0.96473  Biso   1.000  H
  H78      1.0000 0.41690  0.59630  0.29807  Biso   1.000  H
  H79      1.0000 0.17940  0.59630  0.20193  Biso   1.000  H
  H80      1.0000 0.41690  0.82060  0.86860  Biso   1.000  H
  H81      1.0000 0.40370  0.58310  0.53527  Biso   1.000  H
  H82      1.0000 0.82060  0.40370  0.70193  Biso   1.000  H
  H83      1.0000 0.58310  0.17940  0.36860  Biso   1.000  H
  H84      1.0000 0.59630  0.41690  0.03527  Biso   1.000  H
  C193     1.0000 0.68950  0.33370  0.12222  Biso   1.000  C
  C194     1.0000 0.66630  0.35580  0.45555  Biso   1.000  C
  C195     1.0000 0.64420  0.31050  0.78889  Biso   1.000  C
  C196     1.0000 0.31050  0.66630  0.62222  Biso   1.000  C
  C197     1.0000 0.33370  0.64420  0.95555  Biso   1.000  C
  C198     1.0000 0.35580  0.68950  0.28889  Biso   1.000  C
  C199     1.0000 0.33370  0.68950  0.21111  Biso   1.000  C
  C200     1.0000 0.35580  0.66630  0.87778  Biso   1.000  C
  C201     1.0000 0.31050  0.64420  0.54445  Biso   1.000  C
  C202     1.0000 0.66630  0.31050  0.71111  Biso   1.000  C
  C203     1.0000 0.64420  0.33370  0.37778  Biso   1.000  C
  C204     1.0000 0.68950  0.35580  0.04445  Biso   1.000  C
  H85      1.0000 0.63700  0.34500  0.11400  Biso   1.000  H
  H86      1.0000 0.65500  0.29200  0.44733  Biso   1.000  H
  H87      1.0000 0.70800  0.36300  0.78067  Biso   1.000  H
  H88      1.0000 0.36300  0.65500  0.61400  Biso   1.000  H
  H89      1.0000 0.34500  0.70800  0.94733  Biso   1.000  H
  H90      1.0000 0.29200  0.63700  0.28067  Biso   1.000  H
  H91      1.0000 0.34500  0.63700  0.21933  Biso   1.000  H
  H92      1.0000 0.29200  0.65500  0.88600  Biso   1.000  H
  H93      1.0000 0.36300  0.70800  0.55267  Biso   1.000  H
  H94      1.0000 0.65500  0.36300  0.71933  Biso   1.000  H
  H95      1.0000 0.70800  0.34500  0.38600  Biso   1.000  H
  H96      1.0000 0.63700  0.29200  0.05267  Biso   1.000  H
  C205     1.0000 0.79170  0.41590  0.12392  Biso   1.000  C
  C206     1.0000 0.58410  0.37580  0.45725  Biso   1.000  C
  C207     1.0000 0.62420  0.20830  0.79059  Biso   1.000  C
  C208     1.0000 0.20830  0.58410  0.62392  Biso   1.000  C
  C209     1.0000 0.41590  0.62420  0.95725  Biso   1.000  C
  C210     1.0000 0.37580  0.79170  0.29059  Biso   1.000  C
  C211     1.0000 0.41590  0.79170  0.20941  Biso   1.000  C
  C212     1.0000 0.37580  0.58410  0.87608  Biso   1.000  C
  C213     1.0000 0.20830  0.62420  0.54275  Biso   1.000  C
  C214     1.0000 0.58410  0.20830  0.70941  Biso   1.000  C
  C215     1.0000 0.62420  0.41590  0.37608  Biso   1.000  C
  C216     1.0000 0.79170  0.37580  0.04275  Biso   1.000  C
  H97      1.0000 0.80970  0.48190  0.11580  Biso   1.000  H
  H98      1.0000 0.51810  0.32780  0.44913  Biso   1.000  H
  H99      1.0000 0.67220  0.19030  0.78247  Biso   1.000  H
  H100     1.0000 0.19030  0.51810  0.61580  Biso   1.000  H
  H101     1.0000 0.48190  0.67220  0.94913  Biso   1.000  H
  H102     1.0000 0.32780  0.80970  0.28247  Biso   1.000  H
  H103     1.0000 0.48190  0.80970  0.21753  Biso   1.000  H
  H104     1.0000 0.32780  0.51810  0.88420  Biso   1.000  H
  H105     1.0000 0.19030  0.67220  0.55087  Biso   1.000  H
  H106     1.0000 0.51810  0.19030  0.71753  Biso   1.000  H
  H107     1.0000 0.67220  0.48190  0.38420  Biso   1.000  H
  H108     1.0000 0.80970  0.32780  0.05087  Biso   1.000  H
  C217     1.0000 0.86770  0.39840  0.13793  Biso   1.000  C
  C218     1.0000 0.60160  0.46930  0.47126  Biso   1.000  C
  C219     1.0000 0.53070  0.13230  0.80460  Biso   1.000  C
  C220     1.0000 0.13230  0.60160  0.63793  Biso   1.000  C
  C221     1.0000 0.39840  0.53070  0.97126  Biso   1.000  C
  C222     1.0000 0.46930  0.86770  0.30460  Biso   1.000  C
  C223     1.0000 0.39840  0.86770  0.19540  Biso   1.000  C
  C224     1.0000 0.46930  0.60160  0.86207  Biso   1.000  C
  C225     1.0000 0.13230  0.53070  0.52874  Biso   1.000  C
  C226     1.0000 0.60160  0.13230  0.69540  Biso   1.000  C
  C227     1.0000 0.53070  0.39840  0.36207  Biso   1.000  C
  C228     1.0000 0.86770  0.46930  0.02874  Biso   1.000  C
  H109     1.0000 0.93640  0.45420  0.13980  Biso   1.000  H
  H110     1.0000 0.54580  0.48220  0.47313  Biso   1.000  H
  H111     1.0000 0.51780  0.06360  0.80647  Biso   1.000  H
  H112     1.0000 0.06360  0.54580  0.63980  Biso   1.000  H
  H113     1.0000 0.45420  0.51780  0.97313  Biso   1.000  H
  H114     1.0000 0.48220  0.93640  0.30647  Biso   1.000  H
  H115     1.0000 0.45420  0.93640  0.19353  Biso   1.000  H
  H116     1.0000 0.48220  0.54580  0.86020  Biso   1.000  H
  H117     1.0000 0.06360  0.51780  0.52687  Biso   1.000  H
  H118     1.0000 0.54580  0.06360  0.69353  Biso   1.000  H
  H119     1.0000 0.51780  0.45420  0.36020  Biso   1.000  H
  H120     1.0000 0.93640  0.48220  0.02687  Biso   1.000  H
  C229     1.0000 0.56400  0.82080  0.14609  Biso   1.000  C
  C230     1.0000 0.17920  0.74320  0.47942  Biso   1.000  C
  C231     1.0000 0.25680  0.43600  0.81276  Biso   1.000  C
  C232     1.0000 0.43600  0.17920  0.64609  Biso   1.000  C
  C233     1.0000 0.82080  0.25680  0.97942  Biso   1.000  C
  C234     1.0000 0.74320  0.56400  0.31276  Biso   1.000  C
  C235     1.0000 0.82080  0.56400  0.18724  Biso   1.000  C
  C236     1.0000 0.74320  0.17920  0.85391  Biso   1.000  C
  C237     1.0000 0.43600  0.25680  0.52058  Biso   1.000  C
  C238     1.0000 0.17920  0.43600  0.68724  Biso   1.000  C
  C239     1.0000 0.25680  0.82080  0.35391  Biso   1.000  C
  C240     1.0000 0.56400  0.74320  0.02058  Biso   1.000  C
  C241     1.0000 0.47760  0.80630  0.12802  Biso   1.000  C
  C242     1.0000 0.19370  0.67130  0.46135  Biso   1.000  C
  C243     1.0000 0.32870  0.52240  0.79469  Biso   1.000  C
  C244     1.0000 0.52240  0.19370  0.62802  Biso   1.000  C
  C245     1.0000 0.80630  0.32870  0.96135  Biso   1.000  C
  C246     1.0000 0.67130  0.47760  0.29469  Biso   1.000  C
  C247     1.0000 0.80630  0.47760  0.20531  Biso   1.000  C
  C248     1.0000 0.67130  0.19370  0.87198  Biso   1.000  C
  C249     1.0000 0.52240  0.32870  0.53865  Biso   1.000  C
  C250     1.0000 0.19370  0.52240  0.70531  Biso   1.000  C
  C251     1.0000 0.32870  0.80630  0.37198  Biso   1.000  C
  C252     1.0000 0.47760  0.67130  0.03865  Biso   1.000  C
  H121     1.0000 0.47470  0.86360  0.11970  Biso   1.000  H
  H122     1.0000 0.13640  0.61110  0.45303  Biso   1.000  H
  H123     1.0000 0.38890  0.52530  0.78637  Biso   1.000  H
  H124     1.0000 0.52530  0.13640  0.61970  Biso   1.000  H
  H125     1.0000 0.86360  0.38890  0.95303  Biso   1.000  H
  H126     1.0000 0.61110  0.47470  0.28637  Biso   1.000  H
  H127     1.0000 0.86360  0.47470  0.21363  Biso   1.000  H
  H128     1.0000 0.61110  0.13640  0.88030  Biso   1.000  H
  H129     1.0000 0.52530  0.38890  0.54697  Biso   1.000  H
  H130     1.0000 0.13640  0.52530  0.71363  Biso   1.000  H
  H131     1.0000 0.38890  0.86360  0.38030  Biso   1.000  H
  H132     1.0000 0.47470  0.61110  0.04697  Biso   1.000  H
  C253     1.0000 0.39700  0.70500  0.12285  Biso   1.000  C
  C254     1.0000 0.29500  0.69200  0.45618  Biso   1.000  C
  C255     1.0000 0.30800  0.60300  0.78952  Biso   1.000  C
  C256     1.0000 0.60300  0.29500  0.62285  Biso   1.000  C
  C257     1.0000 0.70500  0.30800  0.95618  Biso   1.000  C
  C258     1.0000 0.69200  0.39700  0.28952  Biso   1.000  C
  C259     1.0000 0.70500  0.39700  0.21048  Biso   1.000  C
  C260     1.0000 0.69200  0.29500  0.87715  Biso   1.000  C
  C261     1.0000 0.60300  0.30800  0.54382  Biso   1.000  C
  C262     1.0000 0.29500  0.60300  0.71048  Biso   1.000  C
  C263     1.0000 0.30800  0.70500  0.37715  Biso   1.000  C
  C264     1.0000 0.39700  0.69200  0.04382  Biso   1.000  C
  H133     1.0000 0.33880  0.69630  0.11140  Biso   1.000  H
  H134     1.0000 0.30370  0.64250  0.44473  Biso   1.000  H
  H135     1.0000 0.35750  0.66120  0.77807  Biso   1.000  H
  H136     1.0000 0.66120  0.30370  0.61140  Biso   1.000  H
  H137     1.0000 0.69630  0.35750  0.94473  Biso   1.000  H
  H138     1.0000 0.64250  0.33880  0.27807  Biso   1.000  H
  H139     1.0000 0.69630  0.33880  0.22193  Biso   1.000  H
  H140     1.0000 0.64250  0.30370  0.88860  Biso   1.000  H
  H141     1.0000 0.66120  0.35750  0.55527  Biso   1.000  H
  H142     1.0000 0.30370  0.66120  0.72193  Biso   1.000  H
  H143     1.0000 0.35750  0.69630  0.38860  Biso   1.000  H
  H144     1.0000 0.33880  0.64250  0.05527  Biso   1.000  H
  C265     1.0000 0.47760  0.63240  0.15029  Biso   1.000  C
  C266     1.0000 0.36760  0.84520  0.48362  Biso   1.000  C
  C267     1.0000 0.15480  0.52240  0.81696  Biso   1.000  C
  C268     1.0000 0.52240  0.36760  0.65029  Biso   1.000  C
  C269     1.0000 0.63240  0.15480  0.98362  Biso   1.000  C
  C270     1.0000 0.84520  0.47760  0.31696  Biso   1.000  C
  C271     1.0000 0.63240  0.47760  0.18304  Biso   1.000  C
  C272     1.0000 0.84520  0.36760  0.84971  Biso   1.000  C
  C273     1.0000 0.52240  0.15480  0.51638  Biso   1.000  C
  C274     1.0000 0.36760  0.52240  0.68304  Biso   1.000  C
  C275     1.0000 0.15480  0.63240  0.34971  Biso   1.000  C
  C276     1.0000 0.47760  0.84520  0.01638  Biso   1.000  C
  H145     1.0000 0.47870  0.57360  0.15810  Biso   1.000  H
  H146     1.0000 0.42640  0.90510  0.49143  Biso   1.000  H
  H147     1.0000 0.09490  0.52130  0.82477  Biso   1.000  H
  H148     1.0000 0.52130  0.42640  0.65810  Biso   1.000  H
  H149     1.0000 0.57360  0.09490  0.99143  Biso   1.000  H
  H150     1.0000 0.90510  0.47870  0.32477  Biso   1.000  H
  H151     1.0000 0.57360  0.47870  0.17523  Biso   1.000  H
  H152     1.0000 0.90510  0.42640  0.84190  Biso   1.000  H
  H153     1.0000 0.52130  0.09490  0.50857  Biso   1.000  H
  H154     1.0000 0.42640  0.52130  0.67523  Biso   1.000  H
  H155     1.0000 0.09490  0.57360  0.34190  Biso   1.000  H
  H156     1.0000 0.47870  0.90510  0.00857  Biso   1.000  H
  C277     1.0000 0.56260  0.73310  0.15732  Biso   1.000  C
  C278     1.0000 0.26690  0.82950  0.49065  Biso   1.000  C
  C279     1.0000 0.17050  0.43740  0.82399  Biso   1.000  C
  C280     1.0000 0.43740  0.26690  0.65732  Biso   1.000  C
  C281     1.0000 0.73310  0.17050  0.99065  Biso   1.000  C
  C282     1.0000 0.82950  0.56260  0.32399  Biso   1.000  C
  C283     1.0000 0.73310  0.56260  0.17601  Biso   1.000  C
  C284     1.0000 0.82950  0.26690  0.84268  Biso   1.000  C
  C285     1.0000 0.43740  0.17050  0.50935  Biso   1.000  C
  C286     1.0000 0.26690  0.43740  0.67601  Biso   1.000  C
  C287     1.0000 0.17050  0.73310  0.34268  Biso   1.000  C
  C288     1.0000 0.56260  0.82950  0.00935  Biso   1.000  C
  H157     1.0000 0.61820  0.73970  0.16970  Biso   1.000  H
  H158     1.0000 0.26030  0.87850  0.50303  Biso   1.000  H
  H159     1.0000 0.12150  0.38180  0.83637  Biso   1.000  H
  H160     1.0000 0.38180  0.26030  0.66970  Biso   1.000  H
  H161     1.0000 0.73970  0.12150  0.00303  Biso   1.000  H
  H162     1.0000 0.87850  0.61820  0.33637  Biso   1.000  H
  H163     1.0000 0.73970  0.61820  0.16363  Biso   1.000  H
  H164     1.0000 0.87850  0.26030  0.83030  Biso   1.000  H
  H165     1.0000 0.38180  0.12150  0.49697  Biso   1.000  H
  H166     1.0000 0.26030  0.38180  0.66363  Biso   1.000  H
  H167     1.0000 0.12150  0.73970  0.33030  Biso   1.000  H
  H168     1.0000 0.61820  0.87850  0.99697  Biso   1.000  H
  C289     0.5000 0.12720  0.52510  0.08398  Biso   1.000  C
  C290     0.5000 0.47490  0.60210  0.41731  Biso   1.000  C
  C291     0.5000 0.39790  0.87280  0.75065  Biso   1.000  C
  C292     0.5000 0.87280  0.47490  0.58398  Biso   1.000  C
  C293     0.5000 0.52510  0.39790  0.91731  Biso   1.000  C
  C294     0.5000 0.60210  0.12720  0.25065  Biso   1.000  C
  C295     0.5000 0.52510  0.12720  0.24935  Biso   1.000  C
  C296     0.5000 0.60210  0.47490  0.91602  Biso   1.000  C
  C297     0.5000 0.87280  0.39790  0.58269  Biso   1.000  C
  C298     0.5000 0.47490  0.87280  0.74935  Biso   1.000  C
  C299     0.5000 0.39790  0.52510  0.41602  Biso   1.000  C
  C300     0.5000 0.12720  0.60210  0.08269  Biso   1.000  C
  C301     0.5000 0.76010  0.92020  0.08213  Biso   1.000  C
  C302     0.5000 0.07980  0.83990  0.41546  Biso   1.000  C
  C303     0.5000 0.16010  0.23990  0.74880  Biso   1.000  C
  C304     0.5000 0.23990  0.07980  0.58213  Biso   1.000  C
  C305     0.5000 0.92020  0.16010  0.91546  Biso   1.000  C
  C306     0.5000 0.83990  0.76010  0.24880  Biso   1.000  C
  C307     0.5000 0.92020  0.76010  0.25120  Biso   1.000  C
  C308     0.5000 0.83990  0.07980  0.91787  Biso   1.000  C
  C309     0.5000 0.23990  0.16010  0.58454  Biso   1.000  C
  C310     0.5000 0.07980  0.23990  0.75120  Biso   1.000  C
  C311     0.5000 0.16010  0.92020  0.41787  Biso   1.000  C
  C312     0.5000 0.76010  0.83990  0.08454  Biso   1.000  C
  C313     0.5000 0.42250  0.17680  0.07680  Biso   1.000  C
  C314     0.5000 0.82320  0.24570  0.41013  Biso   1.000  C
  C315     0.5000 0.75430  0.57750  0.74347  Biso   1.000  C
  C316     0.5000 0.57750  0.82320  0.57680  Biso   1.000  C
  C317     0.5000 0.17680  0.75430  0.91013  Biso   1.000  C
  C318     0.5000 0.24570  0.42250  0.24347  Biso   1.000  C
  C319     0.5000 0.17680  0.42250  0.25653  Biso   1.000  C
  C320     0.5000 0.24570  0.82320  0.92320  Biso   1.000  C
  C321     0.5000 0.57750  0.75430  0.58987  Biso   1.000  C
  C322     0.5000 0.82320  0.57750  0.75653  Biso   1.000  C
  C323     0.5000 0.75430  0.17680  0.42320  Biso   1.000  C
  C324     0.5000 0.42250  0.24570  0.08987  Biso   1.000  C
  C325     0.5000 0.37190  0.00990  0.01338  Biso   1.000  C
  C326     0.5000 0.99010  0.36200  0.34671  Biso   1.000  C
  C327     0.5000 0.63800  0.62810  0.68005  Biso   1.000  C
  C328     0.5000 0.62810  0.99010  0.51338  Biso   1.000  C
  C329     0.5000 0.00990  0.63800  0.84671  Biso   1.000  C
  C330     0.5000 0.36200  0.37190  0.18005  Biso   1.000  C
  C331     0.5000 0.00990  0.37190  0.31995  Biso   1.000  C
  C332     0.5000 0.36200  0.99010  0.98662  Biso   1.000  C
  C333     0.5000 0.62810  0.63800  0.65329  Biso   1.000  C
  C334     0.5000 0.99010  0.62810  0.81995  Biso   1.000  C
  C335     0.5000 0.63800  0.00990  0.48662  Biso   1.000  C
  C336     0.5000 0.37190  0.36200  0.15329  Biso   1.000  C
