data_image0
_cell_length_a       12.056
_cell_length_b       22.196
_cell_length_c       35.84
_cell_angle_alpha    90
_cell_angle_beta     90
_cell_angle_gamma    90

_symmetry_space_group_name_H-M    "P 1"
_symmetry_int_tables_number       1

loop_
  _symmetry_equiv_pos_as_xyz
  'x, y, z'

loop_
  _atom_site_label
  _atom_site_occupancy
  _atom_site_fract_x
  _atom_site_fract_y
  _atom_site_fract_z
  _atom_site_thermal_displace_type
  _atom_site_B_iso_or_equiv
  _atom_site_type_symbol
  Tb1      1.0000 0.79710  0.25000  0.00000  Biso   1.000  Tb
  Tb2      1.0000 0.70290  0.75000  0.50000  Biso   1.000  Tb
  Tb3      1.0000 0.20290  0.75000  0.00000  Biso   1.000  Tb
  Tb4      1.0000 0.29710  0.25000  0.50000  Biso   1.000  Tb
  Co1      1.0000 0.92201  0.43063  0.25693  Biso   1.000  Co
  Co2      1.0000 0.57799  0.93063  0.24307  Biso   1.000  Co
  Co3      1.0000 0.57799  0.56937  0.75693  Biso   1.000  Co
  Co4      1.0000 0.92201  0.06937  0.74307  Biso   1.000  Co
  Co5      1.0000 0.07799  0.56937  0.74307  Biso   1.000  Co
  Co6      1.0000 0.42201  0.06937  0.75693  Biso   1.000  Co
  Co7      1.0000 0.42201  0.43063  0.24307  Biso   1.000  Co
  Co8      1.0000 0.07799  0.93063  0.25693  Biso   1.000  Co
  F1       1.0000 0.99500  0.61340  0.16450  Biso   1.000  F
  F2       1.0000 0.50500  0.11340  0.33550  Biso   1.000  F
  F3       1.0000 0.50500  0.38660  0.66450  Biso   1.000  F
  F4       1.0000 0.99500  0.88660  0.83550  Biso   1.000  F
  F5       1.0000 0.00500  0.38660  0.83550  Biso   1.000  F
  F6       1.0000 0.49500  0.88660  0.66450  Biso   1.000  F
  F7       1.0000 0.49500  0.61340  0.33550  Biso   1.000  F
  F8       1.0000 0.00500  0.11340  0.16450  Biso   1.000  F
  F9       1.0000 0.92870  0.52810  0.14460  Biso   1.000  F
  F10      1.0000 0.57130  0.02810  0.35540  Biso   1.000  F
  F11      1.0000 0.57130  0.47190  0.64460  Biso   1.000  F
  F12      1.0000 0.92870  0.97190  0.85540  Biso   1.000  F
  F13      1.0000 0.07130  0.47190  0.85540  Biso   1.000  F
  F14      1.0000 0.42870  0.97190  0.64460  Biso   1.000  F
  F15      1.0000 0.42870  0.52810  0.35540  Biso   1.000  F
  F16      1.0000 0.07130  0.02810  0.14460  Biso   1.000  F
  F17      1.0000 0.09910  0.53340  0.16050  Biso   1.000  F
  F18      1.0000 0.40090  0.03340  0.33950  Biso   1.000  F
  F19      1.0000 0.40090  0.46660  0.66050  Biso   1.000  F
  F20      1.0000 0.09910  0.96660  0.83950  Biso   1.000  F
  F21      1.0000 0.90090  0.46660  0.83950  Biso   1.000  F
  F22      1.0000 0.59910  0.96660  0.66050  Biso   1.000  F
  F23      1.0000 0.59910  0.53340  0.33950  Biso   1.000  F
  F24      1.0000 0.90090  0.03340  0.16050  Biso   1.000  F
  F25      1.0000 0.39170  0.12740  0.96270  Biso   1.000  F
  F26      1.0000 0.10830  0.62740  0.53730  Biso   1.000  F
  F27      1.0000 0.10830  0.87260  0.46270  Biso   1.000  F
  F28      1.0000 0.39170  0.37260  0.03730  Biso   1.000  F
  F29      1.0000 0.60830  0.87260  0.03730  Biso   1.000  F
  F30      1.0000 0.89170  0.37260  0.46270  Biso   1.000  F
  F31      1.0000 0.89170  0.12740  0.53730  Biso   1.000  F
  F32      1.0000 0.60830  0.62740  0.96270  Biso   1.000  F
  F33      1.0000 0.10060  0.21980  0.09290  Biso   1.000  F
  F34      1.0000 0.39940  0.71980  0.40710  Biso   1.000  F
  F35      1.0000 0.39940  0.78020  0.59290  Biso   1.000  F
  F36      1.0000 0.10060  0.28020  0.90710  Biso   1.000  F
  F37      1.0000 0.89940  0.78020  0.90710  Biso   1.000  F
  F38      1.0000 0.60060  0.28020  0.59290  Biso   1.000  F
  F39      1.0000 0.60060  0.21980  0.40710  Biso   1.000  F
  F40      1.0000 0.89940  0.71980  0.09290  Biso   1.000  F
  F41      1.0000 0.23010  0.26930  0.06370  Biso   1.000  F
  F42      1.0000 0.26990  0.76930  0.43630  Biso   1.000  F
  F43      1.0000 0.26990  0.73070  0.56370  Biso   1.000  F
  F44      1.0000 0.23010  0.23070  0.93630  Biso   1.000  F
  F45      1.0000 0.76990  0.73070  0.93630  Biso   1.000  F
  F46      1.0000 0.73010  0.23070  0.56370  Biso   1.000  F
  F47      1.0000 0.73010  0.26930  0.43630  Biso   1.000  F
  F48      1.0000 0.76990  0.76930  0.06370  Biso   1.000  F
  F49      1.0000 0.58630  0.30320  0.88000  Biso   1.000  F
  F50      1.0000 0.91370  0.80320  0.62000  Biso   1.000  F
  F51      1.0000 0.91370  0.69680  0.38000  Biso   1.000  F
  F52      1.0000 0.58630  0.19680  0.12000  Biso   1.000  F
  F53      1.0000 0.41370  0.69680  0.12000  Biso   1.000  F
  F54      1.0000 0.08630  0.19680  0.38000  Biso   1.000  F
  F55      1.0000 0.08630  0.30320  0.62000  Biso   1.000  F
  F56      1.0000 0.41370  0.80320  0.88000  Biso   1.000  F
  F57      1.0000 0.72770  0.25000  0.86440  Biso   1.000  F
  F58      1.0000 0.77230  0.75000  0.63560  Biso   1.000  F
  F59      1.0000 0.77230  0.75000  0.36440  Biso   1.000  F
  F60      1.0000 0.72770  0.25000  0.13560  Biso   1.000  F
  F61      1.0000 0.27230  0.75000  0.13560  Biso   1.000  F
  F62      1.0000 0.22770  0.25000  0.36440  Biso   1.000  F
  F63      1.0000 0.22770  0.25000  0.63560  Biso   1.000  F
  F64      1.0000 0.27230  0.75000  0.86440  Biso   1.000  F
  F65      1.0000 0.57050  0.21130  0.86190  Biso   1.000  F
  F66      1.0000 0.92950  0.71130  0.63810  Biso   1.000  F
  F67      1.0000 0.92950  0.78870  0.36190  Biso   1.000  F
  F68      1.0000 0.57050  0.28870  0.13810  Biso   1.000  F
  F69      1.0000 0.42950  0.78870  0.13810  Biso   1.000  F
  F70      1.0000 0.07050  0.28870  0.36190  Biso   1.000  F
  F71      1.0000 0.07050  0.21130  0.63810  Biso   1.000  F
  F72      1.0000 0.42950  0.71130  0.86190  Biso   1.000  F
  F73      1.0000 0.08860  0.31500  0.08690  Biso   1.000  F
  F74      1.0000 0.41140  0.81500  0.41310  Biso   1.000  F
  F75      1.0000 0.41140  0.68500  0.58690  Biso   1.000  F
  F76      1.0000 0.08860  0.18500  0.91310  Biso   1.000  F
  F77      1.0000 0.91140  0.68500  0.91310  Biso   1.000  F
  F78      1.0000 0.58860  0.18500  0.58690  Biso   1.000  F
  F79      1.0000 0.58860  0.31500  0.41310  Biso   1.000  F
  F80      1.0000 0.91140  0.81500  0.08690  Biso   1.000  F
  F81      1.0000 0.07650  0.24360  0.21850  Biso   1.000  F
  F82      1.0000 0.42350  0.74360  0.28150  Biso   1.000  F
  F83      1.0000 0.42350  0.75640  0.71850  Biso   1.000  F
  F84      1.0000 0.07650  0.25640  0.78150  Biso   1.000  F
  F85      1.0000 0.92350  0.75640  0.78150  Biso   1.000  F
  F86      1.0000 0.57650  0.25640  0.71850  Biso   1.000  F
  F87      1.0000 0.57650  0.24360  0.28150  Biso   1.000  F
  F88      1.0000 0.92350  0.74360  0.21850  Biso   1.000  F
  F89      1.0000 0.50050  0.08520  0.00200  Biso   1.000  F
  F90      1.0000 0.99950  0.58520  0.49800  Biso   1.000  F
  F91      1.0000 0.99950  0.91480  0.50200  Biso   1.000  F
  F92      1.0000 0.50050  0.41480  0.99800  Biso   1.000  F
  F93      1.0000 0.49950  0.91480  0.99800  Biso   1.000  F
  F94      1.0000 0.00050  0.41480  0.50200  Biso   1.000  F
  F95      1.0000 0.00050  0.08520  0.49800  Biso   1.000  F
  F96      1.0000 0.49950  0.58520  0.00200  Biso   1.000  F
  F97      1.0000 0.92530  0.19750  0.23170  Biso   1.000  F
  F98      1.0000 0.57470  0.69750  0.26830  Biso   1.000  F
  F99      1.0000 0.57470  0.80250  0.73170  Biso   1.000  F
  F100     1.0000 0.92530  0.30250  0.76830  Biso   1.000  F
  F101     1.0000 0.07470  0.80250  0.76830  Biso   1.000  F
  F102     1.0000 0.42530  0.30250  0.73170  Biso   1.000  F
  F103     1.0000 0.42530  0.19750  0.26830  Biso   1.000  F
  F104     1.0000 0.07470  0.69750  0.23170  Biso   1.000  F
  F105     1.0000 0.94050  0.26150  0.18430  Biso   1.000  F
  F106     1.0000 0.55950  0.76150  0.31570  Biso   1.000  F
  F107     1.0000 0.55950  0.73850  0.68430  Biso   1.000  F
  F108     1.0000 0.94050  0.23850  0.81570  Biso   1.000  F
  F109     1.0000 0.05950  0.73850  0.81570  Biso   1.000  F
  F110     1.0000 0.44050  0.23850  0.68430  Biso   1.000  F
  F111     1.0000 0.44050  0.26150  0.31570  Biso   1.000  F
  F112     1.0000 0.05950  0.76150  0.18430  Biso   1.000  F
  F113     1.0000 0.41480  0.16590  0.01570  Biso   1.000  F
  F114     1.0000 0.08520  0.66590  0.48430  Biso   1.000  F
  F115     1.0000 0.08520  0.83410  0.51570  Biso   1.000  F
  F116     1.0000 0.41480  0.33410  0.98430  Biso   1.000  F
  F117     1.0000 0.58520  0.83410  0.98430  Biso   1.000  F
  F118     1.0000 0.91480  0.33410  0.51570  Biso   1.000  F
  F119     1.0000 0.91480  0.16590  0.48430  Biso   1.000  F
  F120     1.0000 0.58520  0.66590  0.01570  Biso   1.000  F
  O1       1.0000 0.95120  0.25940  0.03820  Biso   1.000  O
  O2       1.0000 0.54880  0.75940  0.46180  Biso   1.000  O
  O3       1.0000 0.54880  0.74060  0.53820  Biso   1.000  O
  O4       1.0000 0.95120  0.24060  0.96180  Biso   1.000  O
  O5       1.0000 0.04880  0.74060  0.96180  Biso   1.000  O
  O6       1.0000 0.45120  0.24060  0.53820  Biso   1.000  O
  O7       1.0000 0.45120  0.25940  0.46180  Biso   1.000  O
  O8       1.0000 0.04880  0.75940  0.03820  Biso   1.000  O
  O9       1.0000 0.86500  0.34730  0.99380  Biso   1.000  O
  O10      1.0000 0.63500  0.84730  0.50620  Biso   1.000  O
  O11      1.0000 0.63500  0.65270  0.49380  Biso   1.000  O
  O12      1.0000 0.86500  0.15270  0.00620  Biso   1.000  O
  O13      1.0000 0.13500  0.65270  0.00620  Biso   1.000  O
  O14      1.0000 0.36500  0.15270  0.49380  Biso   1.000  O
  O15      1.0000 0.36500  0.34730  0.50620  Biso   1.000  O
  O16      1.0000 0.13500  0.84730  0.99380  Biso   1.000  O
  O17      1.0000 0.96320  0.35080  0.23340  Biso   1.000  O
  O18      1.0000 0.53680  0.85080  0.26660  Biso   1.000  O
  O19      1.0000 0.53680  0.64920  0.73340  Biso   1.000  O
  O20      1.0000 0.96320  0.14920  0.76660  Biso   1.000  O
  O21      1.0000 0.03680  0.64920  0.76660  Biso   1.000  O
  O22      1.0000 0.46320  0.14920  0.73340  Biso   1.000  O
  O23      1.0000 0.46320  0.35080  0.26660  Biso   1.000  O
  O24      1.0000 0.03680  0.85080  0.23340  Biso   1.000  O
  O25      1.0000 0.75060  0.54510  0.99960  Biso   1.000  O
  O26      1.0000 0.74940  0.04510  0.50040  Biso   1.000  O
  O27      1.0000 0.74940  0.45490  0.49960  Biso   1.000  O
  O28      1.0000 0.75060  0.95490  0.00040  Biso   1.000  O
  O29      1.0000 0.24940  0.45490  0.00040  Biso   1.000  O
  O30      1.0000 0.25060  0.95490  0.49960  Biso   1.000  O
  O31      1.0000 0.25060  0.54510  0.50040  Biso   1.000  O
  O32      1.0000 0.24940  0.04510  0.99960  Biso   1.000  O
  O33      1.0000 0.72920  0.24770  0.93840  Biso   1.000  O
  O34      1.0000 0.77080  0.74770  0.56160  Biso   1.000  O
  O35      1.0000 0.77080  0.75230  0.43840  Biso   1.000  O
  O36      1.0000 0.72920  0.25230  0.06160  Biso   1.000  O
  O37      1.0000 0.27080  0.75230  0.06160  Biso   1.000  O
  O38      1.0000 0.22920  0.25230  0.43840  Biso   1.000  O
  O39      1.0000 0.22920  0.24770  0.56160  Biso   1.000  O
  O40      1.0000 0.27080  0.74770  0.93840  Biso   1.000  O
  O41      1.0000 0.98680  0.48040  0.21420  Biso   1.000  O
  O42      1.0000 0.51320  0.98040  0.28580  Biso   1.000  O
  O43      1.0000 0.51320  0.51960  0.71420  Biso   1.000  O
  O44      1.0000 0.98680  0.01960  0.78580  Biso   1.000  O
  O45      1.0000 0.01320  0.51960  0.78580  Biso   1.000  O
  O46      1.0000 0.48680  0.01960  0.71420  Biso   1.000  O
  O47      1.0000 0.48680  0.48040  0.28580  Biso   1.000  O
  O48      1.0000 0.01320  0.98040  0.21420  Biso   1.000  O
  O49      1.0000 0.63900  0.18470  0.99910  Biso   1.000  O
  O50      1.0000 0.86100  0.68470  0.50090  Biso   1.000  O
  O51      1.0000 0.86100  0.81530  0.49910  Biso   1.000  O
  O52      1.0000 0.63900  0.31530  0.00090  Biso   1.000  O
  O53      1.0000 0.36100  0.81530  0.00090  Biso   1.000  O
  O54      1.0000 0.13900  0.31530  0.49910  Biso   1.000  O
  O55      1.0000 0.13900  0.18470  0.50090  Biso   1.000  O
  O56      1.0000 0.36100  0.68470  0.99910  Biso   1.000  O
  O57      1.0000 0.87680  0.50870  0.28240  Biso   1.000  O
  O58      1.0000 0.62320  0.00870  0.21760  Biso   1.000  O
  O59      1.0000 0.62320  0.49130  0.78240  Biso   1.000  O
  O60      1.0000 0.87680  0.99130  0.71760  Biso   1.000  O
  O61      1.0000 0.12320  0.49130  0.71760  Biso   1.000  O
  O62      1.0000 0.37680  0.99130  0.78240  Biso   1.000  O
  O63      1.0000 0.37680  0.50870  0.21760  Biso   1.000  O
  O64      1.0000 0.12320  0.00870  0.28240  Biso   1.000  O
  O65      1.0000 0.85330  0.38650  0.30020  Biso   1.000  O
  O66      1.0000 0.64670  0.88650  0.19980  Biso   1.000  O
  O67      1.0000 0.64670  0.61350  0.80020  Biso   1.000  O
  O68      1.0000 0.85330  0.11350  0.69980  Biso   1.000  O
  O69      1.0000 0.14670  0.61350  0.69980  Biso   1.000  O
  O70      1.0000 0.35330  0.11350  0.80020  Biso   1.000  O
  O71      1.0000 0.35330  0.38650  0.19980  Biso   1.000  O
  O72      1.0000 0.14670  0.88650  0.30020  Biso   1.000  O
  N1       1.0000 0.83540  0.40050  0.98440  Biso   1.000  N
  N2       1.0000 0.66460  0.90050  0.51560  Biso   1.000  N
  N3       1.0000 0.66460  0.59950  0.48440  Biso   1.000  N
  N4       1.0000 0.83540  0.09950  0.01560  Biso   1.000  N
  N5       1.0000 0.16460  0.59950  0.01560  Biso   1.000  N
  N6       1.0000 0.33540  0.09950  0.48440  Biso   1.000  N
  N7       1.0000 0.33540  0.40050  0.51560  Biso   1.000  N
  N8       1.0000 0.16460  0.90050  0.98440  Biso   1.000  N
  N9       1.0000 0.77240  0.42500  0.22320  Biso   1.000  N
  N10      1.0000 0.72760  0.92500  0.27680  Biso   1.000  N
  N11      1.0000 0.72760  0.57500  0.72320  Biso   1.000  N
  N12      1.0000 0.77240  0.07500  0.77680  Biso   1.000  N
  N13      1.0000 0.22760  0.57500  0.77680  Biso   1.000  N
  N14      1.0000 0.27240  0.07500  0.72320  Biso   1.000  N
  N15      1.0000 0.27240  0.42500  0.27680  Biso   1.000  N
  N16      1.0000 0.22760  0.92500  0.22320  Biso   1.000  N
  N17      1.0000 0.77790  0.49430  0.98710  Biso   1.000  N
  N18      1.0000 0.72210  0.99430  0.51290  Biso   1.000  N
  N19      1.0000 0.72210  0.50570  0.48710  Biso   1.000  N
  N20      1.0000 0.77790  0.00570  0.01290  Biso   1.000  N
  N21      1.0000 0.22210  0.50570  0.01290  Biso   1.000  N
  N22      1.0000 0.27790  0.00570  0.48710  Biso   1.000  N
  N23      1.0000 0.27790  0.49430  0.51290  Biso   1.000  N
  N24      1.0000 0.22210  0.99430  0.98710  Biso   1.000  N
  C1       1.0000 0.96480  0.25260  0.22100  Biso   1.000  C
  C2       1.0000 0.53520  0.75260  0.27900  Biso   1.000  C
  C3       1.0000 0.53520  0.74740  0.72100  Biso   1.000  C
  C4       1.0000 0.96480  0.24740  0.77900  Biso   1.000  C
  C5       1.0000 0.03520  0.74740  0.77900  Biso   1.000  C
  C6       1.0000 0.46480  0.24740  0.72100  Biso   1.000  C
  C7       1.0000 0.46480  0.25260  0.27900  Biso   1.000  C
  C8       1.0000 0.03520  0.75260  0.22100  Biso   1.000  C
  C9       1.0000 0.84150  0.37990  0.91640  Biso   1.000  C
  C10      1.0000 0.65850  0.87990  0.58360  Biso   1.000  C
  C11      1.0000 0.65850  0.62010  0.41640  Biso   1.000  C
  C12      1.0000 0.84150  0.12010  0.08360  Biso   1.000  C
  C13      1.0000 0.15850  0.62010  0.08360  Biso   1.000  C
  C14      1.0000 0.34150  0.12010  0.41640  Biso   1.000  C
  C15      1.0000 0.34150  0.37990  0.58360  Biso   1.000  C
  C16      1.0000 0.15850  0.87990  0.91640  Biso   1.000  C
  H1       1.0000 0.89730  0.34910  0.91660  Biso   1.000  H
  H2       1.0000 0.60270  0.84910  0.58340  Biso   1.000  H
  H3       1.0000 0.60270  0.65090  0.41660  Biso   1.000  H
  H4       1.0000 0.89730  0.15090  0.08340  Biso   1.000  H
  H5       1.0000 0.10270  0.65090  0.08340  Biso   1.000  H
  H6       1.0000 0.39730  0.15090  0.41660  Biso   1.000  H
  H7       1.0000 0.39730  0.34910  0.58340  Biso   1.000  H
  H8       1.0000 0.10270  0.84910  0.91660  Biso   1.000  H
  H9       1.0000 0.83920  0.39860  0.89230  Biso   1.000  H
  H10      1.0000 0.66080  0.89860  0.60770  Biso   1.000  H
  H11      1.0000 0.66080  0.60140  0.39230  Biso   1.000  H
  H12      1.0000 0.83920  0.10140  0.10770  Biso   1.000  H
  H13      1.0000 0.16080  0.60140  0.10770  Biso   1.000  H
  H14      1.0000 0.33920  0.10140  0.39230  Biso   1.000  H
  H15      1.0000 0.33920  0.39860  0.60770  Biso   1.000  H
  H16      1.0000 0.16080  0.89860  0.89230  Biso   1.000  H
  H17      1.0000 0.77060  0.36240  0.92190  Biso   1.000  H
  H18      1.0000 0.72940  0.86240  0.57810  Biso   1.000  H
  H19      1.0000 0.72940  0.63760  0.42190  Biso   1.000  H
  H20      1.0000 0.77060  0.13760  0.07810  Biso   1.000  H
  H21      1.0000 0.22940  0.63760  0.07810  Biso   1.000  H
  H22      1.0000 0.27060  0.13760  0.42190  Biso   1.000  H
  H23      1.0000 0.27060  0.36240  0.57810  Biso   1.000  H
  H24      1.0000 0.22940  0.86240  0.92190  Biso   1.000  H
  C17      1.0000 0.69430  0.42500  0.16220  Biso   1.000  C
  C18      1.0000 0.80570  0.92500  0.33780  Biso   1.000  C
  C19      1.0000 0.80570  0.57500  0.66220  Biso   1.000  C
  C20      1.0000 0.69430  0.07500  0.83780  Biso   1.000  C
  C21      1.0000 0.30570  0.57500  0.83780  Biso   1.000  C
  C22      1.0000 0.19430  0.07500  0.66220  Biso   1.000  C
  C23      1.0000 0.19430  0.42500  0.33780  Biso   1.000  C
  C24      1.0000 0.30570  0.92500  0.16220  Biso   1.000  C
  C25      1.0000 0.84040  0.33370  0.30240  Biso   1.000  C
  C26      1.0000 0.65960  0.83370  0.19760  Biso   1.000  C
  C27      1.0000 0.65960  0.66630  0.80240  Biso   1.000  C
  C28      1.0000 0.84040  0.16630  0.69760  Biso   1.000  C
  C29      1.0000 0.15960  0.66630  0.69760  Biso   1.000  C
  C30      1.0000 0.34040  0.16630  0.80240  Biso   1.000  C
  C31      1.0000 0.34040  0.33370  0.19760  Biso   1.000  C
  C32      1.0000 0.15960  0.83370  0.30240  Biso   1.000  C
  C33      1.0000 0.85130  0.53990  0.92930  Biso   1.000  C
  C34      1.0000 0.64870  0.03990  0.57070  Biso   1.000  C
  C35      1.0000 0.64870  0.46010  0.42930  Biso   1.000  C
  C36      1.0000 0.85130  0.96010  0.07070  Biso   1.000  C
  C37      1.0000 0.14870  0.46010  0.07070  Biso   1.000  C
  C38      1.0000 0.35130  0.96010  0.42930  Biso   1.000  C
  C39      1.0000 0.35130  0.53990  0.57070  Biso   1.000  C
  C40      1.0000 0.14870  0.03990  0.92930  Biso   1.000  C
  H25      1.0000 0.87150  0.53240  0.90380  Biso   1.000  H
  H26      1.0000 0.62850  0.03240  0.59620  Biso   1.000  H
  H27      1.0000 0.62850  0.46760  0.40380  Biso   1.000  H
  H28      1.0000 0.87150  0.96760  0.09620  Biso   1.000  H
  H29      1.0000 0.12850  0.46760  0.09620  Biso   1.000  H
  H30      1.0000 0.37150  0.96760  0.40380  Biso   1.000  H
  H31      1.0000 0.37150  0.53240  0.59620  Biso   1.000  H
  H32      1.0000 0.12850  0.03240  0.90380  Biso   1.000  H
  H33      1.0000 0.91610  0.55120  0.94320  Biso   1.000  H
  H34      1.0000 0.58390  0.05120  0.55680  Biso   1.000  H
  H35      1.0000 0.58390  0.44880  0.44320  Biso   1.000  H
  H36      1.0000 0.91610  0.94880  0.05680  Biso   1.000  H
  H37      1.0000 0.08390  0.44880  0.05680  Biso   1.000  H
  H38      1.0000 0.41610  0.94880  0.44320  Biso   1.000  H
  H39      1.0000 0.41610  0.55120  0.55680  Biso   1.000  H
  H40      1.0000 0.08390  0.05120  0.94320  Biso   1.000  H
  H41      1.0000 0.79800  0.57200  0.93030  Biso   1.000  H
  H42      1.0000 0.70200  0.07200  0.56970  Biso   1.000  H
  H43      1.0000 0.70200  0.42800  0.43030  Biso   1.000  H
  H44      1.0000 0.79800  0.92800  0.06970  Biso   1.000  H
  H45      1.0000 0.20200  0.42800  0.06970  Biso   1.000  H
  H46      1.0000 0.29800  0.92800  0.43030  Biso   1.000  H
  H47      1.0000 0.29800  0.57200  0.56970  Biso   1.000  H
  H48      1.0000 0.20200  0.07200  0.93030  Biso   1.000  H
  C41      1.0000 0.67580  0.46940  0.06170  Biso   1.000  C
  C42      1.0000 0.82420  0.96940  0.43830  Biso   1.000  C
  C43      1.0000 0.82420  0.53060  0.56170  Biso   1.000  C
  C44      1.0000 0.67580  0.03060  0.93830  Biso   1.000  C
  C45      1.0000 0.32420  0.53060  0.93830  Biso   1.000  C
  C46      1.0000 0.17580  0.03060  0.56170  Biso   1.000  C
  C47      1.0000 0.17580  0.46940  0.43830  Biso   1.000  C
  C48      1.0000 0.32420  0.96940  0.06170  Biso   1.000  C
  H49      1.0000 0.63490  0.49550  0.04680  Biso   1.000  H
  H50      1.0000 0.86510  0.99550  0.45320  Biso   1.000  H
  H51      1.0000 0.86510  0.50450  0.54680  Biso   1.000  H
  H52      1.0000 0.63490  0.00450  0.95320  Biso   1.000  H
  H53      1.0000 0.36510  0.50450  0.95320  Biso   1.000  H
  H54      1.0000 0.13490  0.00450  0.54680  Biso   1.000  H
  H55      1.0000 0.13490  0.49550  0.45320  Biso   1.000  H
  H56      1.0000 0.36510  0.99550  0.04680  Biso   1.000  H
  C49      1.0000 0.91520  0.57460  0.23250  Biso   1.000  C
  C50      1.0000 0.58480  0.07460  0.26750  Biso   1.000  C
  C51      1.0000 0.58480  0.42540  0.73250  Biso   1.000  C
  C52      1.0000 0.91520  0.92540  0.76750  Biso   1.000  C
  C53      1.0000 0.08480  0.42540  0.76750  Biso   1.000  C
  C54      1.0000 0.41520  0.92540  0.73250  Biso   1.000  C
  C55      1.0000 0.41520  0.57460  0.26750  Biso   1.000  C
  C56      1.0000 0.08480  0.07460  0.23250  Biso   1.000  C
  H57      1.0000 0.90640  0.61450  0.22510  Biso   1.000  H
  H58      1.0000 0.59360  0.11450  0.27490  Biso   1.000  H
  H59      1.0000 0.59360  0.38550  0.72510  Biso   1.000  H
  H60      1.0000 0.90640  0.88550  0.77490  Biso   1.000  H
  H61      1.0000 0.09360  0.38550  0.77490  Biso   1.000  H
  H62      1.0000 0.40640  0.88550  0.72510  Biso   1.000  H
  H63      1.0000 0.40640  0.61450  0.27490  Biso   1.000  H
  H64      1.0000 0.09360  0.11450  0.22510  Biso   1.000  H
  C57      1.0000 0.99590  0.55270  0.17100  Biso   1.000  C
  C58      1.0000 0.50410  0.05270  0.32900  Biso   1.000  C
  C59      1.0000 0.50410  0.44730  0.67100  Biso   1.000  C
  C60      1.0000 0.99590  0.94730  0.82900  Biso   1.000  C
  C61      1.0000 0.00410  0.44730  0.82900  Biso   1.000  C
  C62      1.0000 0.49590  0.94730  0.67100  Biso   1.000  C
  C63      1.0000 0.49590  0.55270  0.32900  Biso   1.000  C
  C64      1.0000 0.00410  0.05270  0.17100  Biso   1.000  C
  C65      1.0000 0.96530  0.53460  0.20880  Biso   1.000  C
  C66      1.0000 0.53470  0.03460  0.29120  Biso   1.000  C
  C67      1.0000 0.53470  0.46540  0.70880  Biso   1.000  C
  C68      1.0000 0.96530  0.96540  0.79120  Biso   1.000  C
  C69      1.0000 0.03470  0.46540  0.79120  Biso   1.000  C
  C70      1.0000 0.46530  0.96540  0.70880  Biso   1.000  C
  C71      1.0000 0.46530  0.53460  0.29120  Biso   1.000  C
  C72      1.0000 0.03470  0.03460  0.20880  Biso   1.000  C
  C73      1.0000 0.99520  0.43860  0.94930  Biso   1.000  C
  C74      1.0000 0.50480  0.93860  0.55070  Biso   1.000  C
  C75      1.0000 0.50480  0.56140  0.44930  Biso   1.000  C
  C76      1.0000 0.99520  0.06140  0.05070  Biso   1.000  C
  C77      1.0000 0.00480  0.56140  0.05070  Biso   1.000  C
  C78      1.0000 0.49520  0.06140  0.44930  Biso   1.000  C
  C79      1.0000 0.49520  0.43860  0.55070  Biso   1.000  C
  C80      1.0000 0.00480  0.93860  0.94930  Biso   1.000  C
  H65      1.0000 0.00830  0.47140  0.96610  Biso   1.000  H
  H66      1.0000 0.49170  0.97140  0.53390  Biso   1.000  H
  H67      1.0000 0.49170  0.52860  0.46610  Biso   1.000  H
  H68      1.0000 0.00830  0.02860  0.03390  Biso   1.000  H
  H69      1.0000 0.99170  0.52860  0.03390  Biso   1.000  H
  H70      1.0000 0.50830  0.02860  0.46610  Biso   1.000  H
  H71      1.0000 0.50830  0.47140  0.53390  Biso   1.000  H
  H72      1.0000 0.99170  0.97140  0.96610  Biso   1.000  H
  H73      1.0000 0.02490  0.44840  0.92520  Biso   1.000  H
  H74      1.0000 0.47510  0.94840  0.57480  Biso   1.000  H
  H75      1.0000 0.47510  0.55160  0.42520  Biso   1.000  H
  H76      1.0000 0.02490  0.05160  0.07480  Biso   1.000  H
  H77      1.0000 0.97510  0.55160  0.07480  Biso   1.000  H
  H78      1.0000 0.52490  0.05160  0.42520  Biso   1.000  H
  H79      1.0000 0.52490  0.44840  0.57480  Biso   1.000  H
  H80      1.0000 0.97510  0.94840  0.92520  Biso   1.000  H
  H81      1.0000 0.03080  0.40300  0.95860  Biso   1.000  H
  H82      1.0000 0.46920  0.90300  0.54140  Biso   1.000  H
  H83      1.0000 0.46920  0.59700  0.45860  Biso   1.000  H
  H84      1.0000 0.03080  0.09700  0.04140  Biso   1.000  H
  H85      1.0000 0.96920  0.59700  0.04140  Biso   1.000  H
  H86      1.0000 0.53080  0.09700  0.45860  Biso   1.000  H
  H87      1.0000 0.53080  0.40300  0.54140  Biso   1.000  H
  H88      1.0000 0.96920  0.90300  0.95860  Biso   1.000  H
  C81      1.0000 0.11790  0.26460  0.06730  Biso   1.000  C
  C82      1.0000 0.38210  0.76460  0.43270  Biso   1.000  C
  C83      1.0000 0.38210  0.73540  0.56730  Biso   1.000  C
  C84      1.0000 0.11790  0.23540  0.93270  Biso   1.000  C
  C85      1.0000 0.88210  0.73540  0.93270  Biso   1.000  C
  C86      1.0000 0.61790  0.23540  0.56730  Biso   1.000  C
  C87      1.0000 0.61790  0.26460  0.43270  Biso   1.000  C
  C88      1.0000 0.88210  0.76460  0.06730  Biso   1.000  C
  C89      1.0000 0.63230  0.24780  0.88380  Biso   1.000  C
  C90      1.0000 0.86770  0.74780  0.61620  Biso   1.000  C
  C91      1.0000 0.86770  0.75220  0.38380  Biso   1.000  C
  C92      1.0000 0.63230  0.25220  0.11620  Biso   1.000  C
  C93      1.0000 0.36770  0.75220  0.11620  Biso   1.000  C
  C94      1.0000 0.13230  0.25220  0.38380  Biso   1.000  C
  C95      1.0000 0.13230  0.24780  0.61620  Biso   1.000  C
  C96      1.0000 0.36770  0.74780  0.88380  Biso   1.000  C
  C97      1.0000 0.82610  0.39590  0.06810  Biso   1.000  C
  C98      1.0000 0.67390  0.89590  0.43190  Biso   1.000  C
  C99      1.0000 0.67390  0.60410  0.56810  Biso   1.000  C
  C100     1.0000 0.82610  0.10410  0.93190  Biso   1.000  C
  C101     1.0000 0.17390  0.60410  0.93190  Biso   1.000  C
  C102     1.0000 0.32610  0.10410  0.56810  Biso   1.000  C
  C103     1.0000 0.32610  0.39590  0.43190  Biso   1.000  C
  C104     1.0000 0.17390  0.89590  0.06810  Biso   1.000  C
  H89      1.0000 0.88280  0.37280  0.05780  Biso   1.000  H
  H90      1.0000 0.61720  0.87280  0.44220  Biso   1.000  H
  H91      1.0000 0.61720  0.62720  0.55780  Biso   1.000  H
  H92      1.0000 0.88280  0.12720  0.94220  Biso   1.000  H
  H93      1.0000 0.11720  0.62720  0.94220  Biso   1.000  H
  H94      1.0000 0.38280  0.12720  0.55780  Biso   1.000  H
  H95      1.0000 0.38280  0.37280  0.44220  Biso   1.000  H
  H96      1.0000 0.11720  0.87280  0.05780  Biso   1.000  H
  C105     1.0000 0.93100  0.30170  0.24530  Biso   1.000  C
  C106     1.0000 0.56900  0.80170  0.25470  Biso   1.000  C
  C107     1.0000 0.56900  0.69830  0.74530  Biso   1.000  C
  C108     1.0000 0.93100  0.19830  0.75470  Biso   1.000  C
  C109     1.0000 0.06900  0.69830  0.75470  Biso   1.000  C
  C110     1.0000 0.43100  0.19830  0.74530  Biso   1.000  C
  C111     1.0000 0.43100  0.30170  0.25470  Biso   1.000  C
  C112     1.0000 0.06900  0.80170  0.24530  Biso   1.000  C
  C113     1.0000 0.05400  0.25810  0.03320  Biso   1.000  C
  C114     1.0000 0.44600  0.75810  0.46680  Biso   1.000  C
  C115     1.0000 0.44600  0.74190  0.53320  Biso   1.000  C
  C116     1.0000 0.05400  0.24190  0.96680  Biso   1.000  C
  C117     1.0000 0.94600  0.74190  0.96680  Biso   1.000  C
  C118     1.0000 0.55400  0.24190  0.53320  Biso   1.000  C
  C119     1.0000 0.55400  0.25810  0.46680  Biso   1.000  C
  C120     1.0000 0.94600  0.75810  0.03320  Biso   1.000  C
  C121     1.0000 0.64210  0.23100  0.92280  Biso   1.000  C
  C122     1.0000 0.85790  0.73100  0.57720  Biso   1.000  C
  C123     1.0000 0.85790  0.76900  0.42280  Biso   1.000  C
  C124     1.0000 0.64210  0.26900  0.07720  Biso   1.000  C
  C125     1.0000 0.35790  0.76900  0.07720  Biso   1.000  C
  C126     1.0000 0.14210  0.26900  0.42280  Biso   1.000  C
  C127     1.0000 0.14210  0.23100  0.57720  Biso   1.000  C
  C128     1.0000 0.35790  0.73100  0.92280  Biso   1.000  C
  C129     1.0000 0.47320  0.14060  0.98800  Biso   1.000  C
  C130     1.0000 0.02680  0.64060  0.51200  Biso   1.000  C
  C131     1.0000 0.02680  0.85940  0.48800  Biso   1.000  C
  C132     1.0000 0.47320  0.35940  0.01200  Biso   1.000  C
  C133     1.0000 0.52680  0.85940  0.01200  Biso   1.000  C
  C134     1.0000 0.97320  0.35940  0.48800  Biso   1.000  C
  C135     1.0000 0.97320  0.14060  0.51200  Biso   1.000  C
  C136     1.0000 0.52680  0.64060  0.98800  Biso   1.000  C
  C137     1.0000 0.87340  0.28930  0.27910  Biso   1.000  C
  C138     1.0000 0.62660  0.78930  0.22090  Biso   1.000  C
  C139     1.0000 0.62660  0.71070  0.77910  Biso   1.000  C
  C140     1.0000 0.87340  0.21070  0.72090  Biso   1.000  C
  C141     1.0000 0.12660  0.71070  0.72090  Biso   1.000  C
  C142     1.0000 0.37340  0.21070  0.77910  Biso   1.000  C
  C143     1.0000 0.37340  0.28930  0.22090  Biso   1.000  C
  C144     1.0000 0.12660  0.78930  0.27910  Biso   1.000  C
  H97      1.0000 0.85800  0.24950  0.28530  Biso   1.000  H
  H98      1.0000 0.64200  0.74950  0.21470  Biso   1.000  H
  H99      1.0000 0.64200  0.75050  0.78530  Biso   1.000  H
  H100     1.0000 0.85800  0.25050  0.71470  Biso   1.000  H
  H101     1.0000 0.14200  0.75050  0.71470  Biso   1.000  H
  H102     1.0000 0.35800  0.25050  0.78530  Biso   1.000  H
  H103     1.0000 0.35800  0.24950  0.21470  Biso   1.000  H
  H104     1.0000 0.14200  0.74950  0.28530  Biso   1.000  H
  C145     1.0000 0.66950  0.42990  0.23640  Biso   1.000  C
  C146     1.0000 0.83050  0.92990  0.26360  Biso   1.000  C
  C147     1.0000 0.83050  0.57010  0.73640  Biso   1.000  C
  C148     1.0000 0.66950  0.07010  0.76360  Biso   1.000  C
  C149     1.0000 0.33050  0.57010  0.76360  Biso   1.000  C
  C150     1.0000 0.16950  0.07010  0.73640  Biso   1.000  C
  C151     1.0000 0.16950  0.42990  0.26360  Biso   1.000  C
  C152     1.0000 0.33050  0.92990  0.23640  Biso   1.000  C
  H105     1.0000 0.66080  0.43270  0.26210  Biso   1.000  H
  H106     1.0000 0.83920  0.93270  0.23790  Biso   1.000  H
  H107     1.0000 0.83920  0.56730  0.76210  Biso   1.000  H
  H108     1.0000 0.66080  0.06730  0.73790  Biso   1.000  H
  H109     1.0000 0.33920  0.56730  0.73790  Biso   1.000  H
  H110     1.0000 0.16080  0.06730  0.76210  Biso   1.000  H
  H111     1.0000 0.16080  0.43270  0.23790  Biso   1.000  H
  H112     1.0000 0.33920  0.93270  0.26210  Biso   1.000  H
  C153     1.0000 0.71580  0.42630  0.12150  Biso   1.000  C
  C154     1.0000 0.78420  0.92630  0.37850  Biso   1.000  C
  C155     1.0000 0.78420  0.57370  0.62150  Biso   1.000  C
  C156     1.0000 0.71580  0.07370  0.87850  Biso   1.000  C
  C157     1.0000 0.28420  0.57370  0.87850  Biso   1.000  C
  C158     1.0000 0.21580  0.07370  0.62150  Biso   1.000  C
  C159     1.0000 0.21580  0.42630  0.37850  Biso   1.000  C
  C160     1.0000 0.28420  0.92630  0.12150  Biso   1.000  C
  C161     1.0000 0.78460  0.42190  0.18680  Biso   1.000  C
  C162     1.0000 0.71540  0.92190  0.31320  Biso   1.000  C
  C163     1.0000 0.71540  0.57810  0.68680  Biso   1.000  C
  C164     1.0000 0.78460  0.07810  0.81320  Biso   1.000  C
  C165     1.0000 0.21540  0.57810  0.81320  Biso   1.000  C
  C166     1.0000 0.28460  0.07810  0.68680  Biso   1.000  C
  C167     1.0000 0.28460  0.42190  0.31320  Biso   1.000  C
  C168     1.0000 0.21540  0.92190  0.18680  Biso   1.000  C
  H113     1.0000 0.85560  0.41740  0.17700  Biso   1.000  H
  H114     1.0000 0.64440  0.91740  0.32300  Biso   1.000  H
  H115     1.0000 0.64440  0.58260  0.67700  Biso   1.000  H
  H116     1.0000 0.85560  0.08260  0.82300  Biso   1.000  H
  H117     1.0000 0.14440  0.58260  0.82300  Biso   1.000  H
  H118     1.0000 0.35560  0.08260  0.67700  Biso   1.000  H
  H119     1.0000 0.35560  0.41740  0.32300  Biso   1.000  H
  H120     1.0000 0.14440  0.91740  0.17700  Biso   1.000  H
  C169     1.0000 0.56440  0.17690  0.97510  Biso   1.000  C
  C170     1.0000 0.93560  0.67690  0.52490  Biso   1.000  C
  C171     1.0000 0.93560  0.82310  0.47510  Biso   1.000  C
  C172     1.0000 0.56440  0.32310  0.02490  Biso   1.000  C
  C173     1.0000 0.43560  0.82310  0.02490  Biso   1.000  C
  C174     1.0000 0.06440  0.32310  0.47510  Biso   1.000  C
  C175     1.0000 0.06440  0.17690  0.52490  Biso   1.000  C
  C176     1.0000 0.43560  0.67690  0.97510  Biso   1.000  C
  C177     1.0000 0.76430  0.43430  0.04680  Biso   1.000  C
  C178     1.0000 0.73570  0.93430  0.45320  Biso   1.000  C
  C179     1.0000 0.73570  0.56570  0.54680  Biso   1.000  C
  C180     1.0000 0.76430  0.06570  0.95320  Biso   1.000  C
  C181     1.0000 0.23570  0.56570  0.95320  Biso   1.000  C
  C182     1.0000 0.26430  0.06570  0.54680  Biso   1.000  C
  C183     1.0000 0.26430  0.43430  0.45320  Biso   1.000  C
  C184     1.0000 0.23570  0.93430  0.04680  Biso   1.000  C
  C185     1.0000 0.86930  0.42730  0.94590  Biso   1.000  C
  C186     1.0000 0.63070  0.92730  0.55410  Biso   1.000  C
  C187     1.0000 0.63070  0.57270  0.44590  Biso   1.000  C
  C188     1.0000 0.86930  0.07270  0.05410  Biso   1.000  C
  C189     1.0000 0.13070  0.57270  0.05410  Biso   1.000  C
  C190     1.0000 0.36930  0.07270  0.44590  Biso   1.000  C
  C191     1.0000 0.36930  0.42730  0.55410  Biso   1.000  C
  C192     1.0000 0.13070  0.92730  0.94590  Biso   1.000  C
  C193     1.0000 0.87750  0.55670  0.26720  Biso   1.000  C
  C194     1.0000 0.62250  0.05670  0.23280  Biso   1.000  C
  C195     1.0000 0.62250  0.44330  0.76720  Biso   1.000  C
  C196     1.0000 0.87750  0.94330  0.73280  Biso   1.000  C
  C197     1.0000 0.12250  0.44330  0.73280  Biso   1.000  C
  C198     1.0000 0.37750  0.94330  0.76720  Biso   1.000  C
  C199     1.0000 0.37750  0.55670  0.23280  Biso   1.000  C
  C200     1.0000 0.12250  0.05670  0.26720  Biso   1.000  C
  C201     1.0000 0.68390  0.47310  0.92980  Biso   1.000  C
  C202     1.0000 0.81610  0.97310  0.57020  Biso   1.000  C
  C203     1.0000 0.81610  0.52690  0.42980  Biso   1.000  C
  C204     1.0000 0.68390  0.02690  0.07020  Biso   1.000  C
  C205     1.0000 0.31610  0.52690  0.07020  Biso   1.000  C
  C206     1.0000 0.18390  0.02690  0.42980  Biso   1.000  C
  C207     1.0000 0.18390  0.47310  0.57020  Biso   1.000  C
  C208     1.0000 0.31610  0.97310  0.92980  Biso   1.000  C
  H121     1.0000 0.65990  0.50800  0.91620  Biso   1.000  H
  H122     1.0000 0.84010  0.00800  0.58380  Biso   1.000  H
  H123     1.0000 0.84010  0.49200  0.41620  Biso   1.000  H
  H124     1.0000 0.65990  0.99200  0.08380  Biso   1.000  H
  H125     1.0000 0.34010  0.49200  0.08380  Biso   1.000  H
  H126     1.0000 0.15990  0.99200  0.41620  Biso   1.000  H
  H127     1.0000 0.15990  0.50800  0.58380  Biso   1.000  H
  H128     1.0000 0.34010  0.00800  0.91620  Biso   1.000  H
  H129     1.0000 0.63340  0.46550  0.95000  Biso   1.000  H
  H130     1.0000 0.86660  0.96550  0.55000  Biso   1.000  H
  H131     1.0000 0.86660  0.53450  0.45000  Biso   1.000  H
  H132     1.0000 0.63340  0.03450  0.05000  Biso   1.000  H
  H133     1.0000 0.36660  0.53450  0.05000  Biso   1.000  H
  H134     1.0000 0.13340  0.03450  0.45000  Biso   1.000  H
  H135     1.0000 0.13340  0.46550  0.55000  Biso   1.000  H
  H136     1.0000 0.36660  0.96550  0.95000  Biso   1.000  H
  H137     1.0000 0.68550  0.43890  0.91340  Biso   1.000  H
  H138     1.0000 0.81450  0.93890  0.58660  Biso   1.000  H
  H139     1.0000 0.81450  0.56110  0.41340  Biso   1.000  H
  H140     1.0000 0.68550  0.06110  0.08660  Biso   1.000  H
  H141     1.0000 0.31450  0.56110  0.08660  Biso   1.000  H
  H142     1.0000 0.18550  0.06110  0.41340  Biso   1.000  H
  H143     1.0000 0.18550  0.43890  0.58660  Biso   1.000  H
  H144     1.0000 0.31450  0.93890  0.91340  Biso   1.000  H
  C209     1.0000 0.79990  0.39290  0.10580  Biso   1.000  C
  C210     1.0000 0.70010  0.89290  0.39420  Biso   1.000  C
  C211     1.0000 0.70010  0.60710  0.60580  Biso   1.000  C
  C212     1.0000 0.79990  0.10710  0.89420  Biso   1.000  C
  C213     1.0000 0.20010  0.60710  0.89420  Biso   1.000  C
  C214     1.0000 0.29990  0.10710  0.60580  Biso   1.000  C
  C215     1.0000 0.29990  0.39290  0.39420  Biso   1.000  C
  C216     1.0000 0.20010  0.89290  0.10580  Biso   1.000  C
  H145     1.0000 0.84100  0.36730  0.12110  Biso   1.000  H
  H146     1.0000 0.65900  0.86730  0.37890  Biso   1.000  H
  H147     1.0000 0.65900  0.63270  0.62110  Biso   1.000  H
  H148     1.0000 0.84100  0.13270  0.87890  Biso   1.000  H
  H149     1.0000 0.15900  0.63270  0.87890  Biso   1.000  H
  H150     1.0000 0.34100  0.13270  0.62110  Biso   1.000  H
  H151     1.0000 0.34100  0.36730  0.37890  Biso   1.000  H
  H152     1.0000 0.15900  0.86730  0.12110  Biso   1.000  H
  C217     1.0000 0.65340  0.46310  0.09900  Biso   1.000  C
  C218     1.0000 0.84660  0.96310  0.40100  Biso   1.000  C
  C219     1.0000 0.84660  0.53690  0.59900  Biso   1.000  C
  C220     1.0000 0.65340  0.03690  0.90100  Biso   1.000  C
  C221     1.0000 0.34660  0.53690  0.90100  Biso   1.000  C
  C222     1.0000 0.15340  0.03690  0.59900  Biso   1.000  C
  C223     1.0000 0.15340  0.46310  0.40100  Biso   1.000  C
  C224     1.0000 0.34660  0.96310  0.09900  Biso   1.000  C
  H153     1.0000 0.59450  0.48440  0.10930  Biso   1.000  H
  H154     1.0000 0.90550  0.98440  0.39070  Biso   1.000  H
  H155     1.0000 0.90550  0.51560  0.60930  Biso   1.000  H
  H156     1.0000 0.59450  0.01560  0.89070  Biso   1.000  H
  H157     1.0000 0.40550  0.51560  0.89070  Biso   1.000  H
  H158     1.0000 0.09450  0.01560  0.60930  Biso   1.000  H
  H159     1.0000 0.09450  0.48440  0.39070  Biso   1.000  H
  H160     1.0000 0.40550  0.98440  0.10930  Biso   1.000  H
  C225     1.0000 0.80220  0.48440  0.94580  Biso   1.000  C
  C226     1.0000 0.69780  0.98440  0.55420  Biso   1.000  C
  C227     1.0000 0.69780  0.51560  0.44580  Biso   1.000  C
  C228     1.0000 0.80220  0.01560  0.05420  Biso   1.000  C
  C229     1.0000 0.19780  0.51560  0.05420  Biso   1.000  C
  C230     1.0000 0.30220  0.01560  0.44580  Biso   1.000  C
  C231     1.0000 0.30220  0.48440  0.55420  Biso   1.000  C
  C232     1.0000 0.19780  0.98440  0.94580  Biso   1.000  C
  C233     1.0000 0.10870  0.25000  0.00000  Biso   1.000  C
  C234     1.0000 0.39130  0.75000  0.50000  Biso   1.000  C
  C235     1.0000 0.89130  0.75000  0.00000  Biso   1.000  C
  C236     1.0000 0.60870  0.25000  0.50000  Biso   1.000  C
  H161     1.0000 0.18580  0.25000  0.00000  Biso   1.000  H
  H162     1.0000 0.31420  0.75000  0.50000  Biso   1.000  H
  H163     1.0000 0.81420  0.75000  0.00000  Biso   1.000  H
  H164     1.0000 0.68580  0.25000  0.50000  Biso   1.000  H
  C237     1.0000 0.78890  0.44250  0.00620  Biso   1.000  C
  C238     1.0000 0.71110  0.94250  0.49380  Biso   1.000  C
  C239     1.0000 0.71110  0.55750  0.50620  Biso   1.000  C
  C240     1.0000 0.78890  0.05750  0.99380  Biso   1.000  C
  C241     1.0000 0.21110  0.55750  0.99380  Biso   1.000  C
  C242     1.0000 0.28890  0.05750  0.50620  Biso   1.000  C
  C243     1.0000 0.28890  0.44250  0.49380  Biso   1.000  C
  C244     1.0000 0.21110  0.94250  0.00620  Biso   1.000  C
  C245     1.0000 0.55910  0.19680  0.93840  Biso   1.000  C
  C246     1.0000 0.94090  0.69680  0.56160  Biso   1.000  C
  C247     1.0000 0.94090  0.80320  0.43840  Biso   1.000  C
  C248     1.0000 0.55910  0.30320  0.06160  Biso   1.000  C
  C249     1.0000 0.44090  0.80320  0.06160  Biso   1.000  C
  C250     1.0000 0.05910  0.30320  0.43840  Biso   1.000  C
  C251     1.0000 0.05910  0.19680  0.56160  Biso   1.000  C
  C252     1.0000 0.44090  0.69680  0.93840  Biso   1.000  C
  H165     1.0000 0.49760  0.18680  0.92400  Biso   1.000  H
  H166     1.0000 0.00240  0.68680  0.57600  Biso   1.000  H
  H167     1.0000 0.00240  0.81320  0.42400  Biso   1.000  H
  H168     1.0000 0.49760  0.31320  0.07600  Biso   1.000  H
  H169     1.0000 0.50240  0.81320  0.07600  Biso   1.000  H
  H170     1.0000 0.99760  0.31320  0.42400  Biso   1.000  H
  H171     1.0000 0.99760  0.18680  0.57600  Biso   1.000  H
  H172     1.0000 0.50240  0.68680  0.92400  Biso   1.000  H
  F121     1.0000 0.67400  0.33750  0.33740  Biso   1.000  F
  F122     1.0000 0.82600  0.83750  0.16260  Biso   1.000  F
  F123     1.0000 0.82600  0.66250  0.83740  Biso   1.000  F
  F124     1.0000 0.67400  0.16250  0.66260  Biso   1.000  F
  F125     1.0000 0.32600  0.66250  0.66260  Biso   1.000  F
  F126     1.0000 0.17400  0.16250  0.83740  Biso   1.000  F
  F127     1.0000 0.17400  0.33750  0.16260  Biso   1.000  F
  F128     1.0000 0.32600  0.83750  0.33740  Biso   1.000  F
  F129     1.0000 0.82850  0.33850  0.36850  Biso   1.000  F
  F130     1.0000 0.67150  0.83850  0.13150  Biso   1.000  F
  F131     1.0000 0.67150  0.66150  0.86850  Biso   1.000  F
  F132     1.0000 0.82850  0.16150  0.63150  Biso   1.000  F
  F133     1.0000 0.17150  0.66150  0.63150  Biso   1.000  F
  F134     1.0000 0.32850  0.16150  0.86850  Biso   1.000  F
  F135     1.0000 0.32850  0.33850  0.13150  Biso   1.000  F
  F136     1.0000 0.17150  0.83850  0.36850  Biso   1.000  F
  F137     1.0000 0.77110  0.25410  0.34250  Biso   1.000  F
  F138     1.0000 0.72890  0.75410  0.15750  Biso   1.000  F
  F139     1.0000 0.72890  0.74590  0.84250  Biso   1.000  F
  F140     1.0000 0.77110  0.24590  0.65750  Biso   1.000  F
  F141     1.0000 0.22890  0.74590  0.65750  Biso   1.000  F
  F142     1.0000 0.27110  0.24590  0.84250  Biso   1.000  F
  F143     1.0000 0.27110  0.25410  0.15750  Biso   1.000  F
  F144     1.0000 0.22890  0.75410  0.34250  Biso   1.000  F
  F145     1.0000 0.82570  0.59870  0.32620  Biso   1.000  F
  F146     1.0000 0.67430  0.09870  0.17380  Biso   1.000  F
  F147     1.0000 0.67430  0.40130  0.82620  Biso   1.000  F
  F148     1.0000 0.82570  0.90130  0.67380  Biso   1.000  F
  F149     1.0000 0.17430  0.40130  0.67380  Biso   1.000  F
  F150     1.0000 0.32570  0.90130  0.82620  Biso   1.000  F
  F151     1.0000 0.32570  0.59870  0.17380  Biso   1.000  F
  F152     1.0000 0.17430  0.09870  0.32620  Biso   1.000  F
  C253     1.0000 0.77840  0.31430  0.33810  Biso   1.000  C
  C254     1.0000 0.72160  0.81430  0.16190  Biso   1.000  C
  C255     1.0000 0.72160  0.68570  0.83810  Biso   1.000  C
  C256     1.0000 0.77840  0.18570  0.66190  Biso   1.000  C
  C257     1.0000 0.22160  0.68570  0.66190  Biso   1.000  C
  C258     1.0000 0.27840  0.18570  0.83810  Biso   1.000  C
  C259     1.0000 0.27840  0.31430  0.16190  Biso   1.000  C
  C260     1.0000 0.22160  0.81430  0.33810  Biso   1.000  C
  F153     1.0000 0.72780  0.60620  0.28840  Biso   1.000  F
  F154     1.0000 0.77220  0.10620  0.21160  Biso   1.000  F
  F155     1.0000 0.77220  0.39380  0.78840  Biso   1.000  F
  F156     1.0000 0.72780  0.89380  0.71160  Biso   1.000  F
  F157     1.0000 0.27220  0.39380  0.71160  Biso   1.000  F
  F158     1.0000 0.22780  0.89380  0.78840  Biso   1.000  F
  F159     1.0000 0.22780  0.60620  0.21160  Biso   1.000  F
  F160     1.0000 0.27220  0.10620  0.28840  Biso   1.000  F
  F161     1.0000 0.82140  0.66650  0.27680  Biso   1.000  F
  F162     1.0000 0.67860  0.16650  0.22320  Biso   1.000  F
  F163     1.0000 0.67860  0.33350  0.77680  Biso   1.000  F
  F164     1.0000 0.82140  0.83350  0.72320  Biso   1.000  F
  F165     1.0000 0.17860  0.33350  0.72320  Biso   1.000  F
  F166     1.0000 0.32140  0.83350  0.77680  Biso   1.000  F
  F167     1.0000 0.32140  0.66650  0.22320  Biso   1.000  F
  F168     1.0000 0.17860  0.16650  0.27680  Biso   1.000  F
  C261     1.0000 0.84310  0.60930  0.28880  Biso   1.000  C
  C262     1.0000 0.65690  0.10930  0.21120  Biso   1.000  C
  C263     1.0000 0.65690  0.39070  0.78880  Biso   1.000  C
  C264     1.0000 0.84310  0.89070  0.71120  Biso   1.000  C
  C265     1.0000 0.15690  0.39070  0.71120  Biso   1.000  C
  C266     1.0000 0.34310  0.89070  0.78880  Biso   1.000  C
  C267     1.0000 0.34310  0.60930  0.21120  Biso   1.000  C
  C268     1.0000 0.15690  0.10930  0.28880  Biso   1.000  C
  N25      1.0000 0.57920  0.43090  0.21580  Biso   1.000  N
  N26      1.0000 0.92080  0.93090  0.28420  Biso   1.000  N
  N27      1.0000 0.92080  0.56910  0.71580  Biso   1.000  N
  N28      1.0000 0.57920  0.06910  0.78420  Biso   1.000  N
  N29      1.0000 0.42080  0.56910  0.78420  Biso   1.000  N
  N30      1.0000 0.07920  0.06910  0.71580  Biso   1.000  N
  N31      1.0000 0.07920  0.43090  0.28420  Biso   1.000  N
  N32      1.0000 0.42080  0.93090  0.21580  Biso   1.000  N
  C269     1.0000 0.59210  0.42990  0.17880  Biso   1.000  C
  C270     1.0000 0.90790  0.92990  0.32120  Biso   1.000  C
  C271     1.0000 0.90790  0.57010  0.67880  Biso   1.000  C
  C272     1.0000 0.59210  0.07010  0.82120  Biso   1.000  C
  C273     1.0000 0.40790  0.57010  0.82120  Biso   1.000  C
  C274     1.0000 0.09210  0.07010  0.67880  Biso   1.000  C
  C275     1.0000 0.09210  0.42990  0.32120  Biso   1.000  C
  C276     1.0000 0.40790  0.92990  0.17880  Biso   1.000  C
  H173     1.0000 0.52950  0.43260  0.16380  Biso   1.000  H
  H174     1.0000 0.97050  0.93260  0.33620  Biso   1.000  H
  H175     1.0000 0.97050  0.56740  0.66380  Biso   1.000  H
  H176     1.0000 0.52950  0.06740  0.83620  Biso   1.000  H
  H177     1.0000 0.47050  0.56740  0.83620  Biso   1.000  H
  H178     1.0000 0.02950  0.06740  0.66380  Biso   1.000  H
  H179     1.0000 0.02950  0.43260  0.33620  Biso   1.000  H
  H180     1.0000 0.47050  0.93260  0.16380  Biso   1.000  H
  F169     1.0000 0.93610  0.63850  0.30320  Biso   1.000  F
  F170     1.0000 0.56390  0.13850  0.19680  Biso   1.000  F
  F171     1.0000 0.56390  0.36150  0.80320  Biso   1.000  F
  F172     1.0000 0.93610  0.86150  0.69680  Biso   1.000  F
  F173     1.0000 0.06390  0.36150  0.69680  Biso   1.000  F
  F174     1.0000 0.43610  0.86150  0.80320  Biso   1.000  F
  F175     1.0000 0.43610  0.63850  0.19680  Biso   1.000  F
  F176     1.0000 0.06390  0.13850  0.30320  Biso   1.000  F
  Tb5      1.0000 0.78100  0.26620  0.99580  Biso   1.000  Tb
  Tb6      1.0000 0.71900  0.76620  0.50420  Biso   1.000  Tb
  Tb7      1.0000 0.71900  0.73380  0.49580  Biso   1.000  Tb
  Tb8      1.0000 0.78100  0.23380  0.00420  Biso   1.000  Tb
  Tb9      1.0000 0.21900  0.73380  0.00420  Biso   1.000  Tb
  Tb10     1.0000 0.28100  0.23380  0.49580  Biso   1.000  Tb
  Tb11     1.0000 0.28100  0.26620  0.50420  Biso   1.000  Tb
  Tb12     1.0000 0.21900  0.76620  0.99580  Biso   1.000  Tb
