data_image0
_cell_length_a       17.353
_cell_length_b       21.2915
_cell_length_c       21.8357
_cell_angle_alpha    90
_cell_angle_beta     90
_cell_angle_gamma    96.502

_symmetry_space_group_name_H-M    "P 1"
_symmetry_int_tables_number       1

loop_
  _symmetry_equiv_pos_as_xyz
  'x, y, z'

loop_
  _atom_site_label
  _atom_site_occupancy
  _atom_site_fract_x
  _atom_site_fract_y
  _atom_site_fract_z
  _atom_site_thermal_displace_type
  _atom_site_B_iso_or_equiv
  _atom_site_type_symbol
  Mo1      1.0000 0.12691  0.75735  0.69489  Biso   1.000  Mo
  Mo2      1.0000 0.37309  0.74265  0.19489  Biso   1.000  Mo
  Mo3      1.0000 0.87309  0.24265  0.30511  Biso   1.000  Mo
  Mo4      1.0000 0.62691  0.25735  0.80511  Biso   1.000  Mo
  Cu1      1.0000 0.54935  0.81323  0.70536  Biso   1.000  Cu
  Cu2      1.0000 0.95065  0.68677  0.20536  Biso   1.000  Cu
  Cu3      1.0000 0.45065  0.18677  0.29464  Biso   1.000  Cu
  Cu4      1.0000 0.04935  0.31323  0.79464  Biso   1.000  Cu
  Cu5      1.0000 0.51922  0.83136  0.85747  Biso   1.000  Cu
  Cu6      1.0000 0.98078  0.66864  0.35747  Biso   1.000  Cu
  Cu7      1.0000 0.48078  0.16864  0.14253  Biso   1.000  Cu
  Cu8      1.0000 0.01922  0.33136  0.64253  Biso   1.000  Cu
  S1       1.0000 0.24554  0.80533  0.73849  Biso   1.000  S
  S2       1.0000 0.25446  0.69467  0.23849  Biso   1.000  S
  S3       1.0000 0.75446  0.19467  0.26151  Biso   1.000  S
  S4       1.0000 0.74554  0.30533  0.76151  Biso   1.000  S
  S5       1.0000 0.18665  0.66290  0.71532  Biso   1.000  S
  S6       1.0000 0.31335  0.83710  0.21532  Biso   1.000  S
  S7       1.0000 0.81335  0.33710  0.28468  Biso   1.000  S
  S8       1.0000 0.68665  0.16290  0.78468  Biso   1.000  S
  S9       1.0000 0.07979  0.84841  0.73879  Biso   1.000  S
  S10      1.0000 0.42021  0.65159  0.23879  Biso   1.000  S
  S11      1.0000 0.92021  0.15159  0.26121  Biso   1.000  S
  S12      1.0000 0.57979  0.34841  0.76121  Biso   1.000  S
  S13      1.0000 0.02428  0.70455  0.75433  Biso   1.000  S
  S14      1.0000 0.47572  0.79545  0.25433  Biso   1.000  S
  S15      1.0000 0.97572  0.29545  0.24567  Biso   1.000  S
  S16      1.0000 0.52428  0.20455  0.74567  Biso   1.000  S
  S17      1.0000 0.16135  0.82895  0.61254  Biso   1.000  S
  S18      1.0000 0.33865  0.67105  0.11254  Biso   1.000  S
  S19      1.0000 0.83865  0.17105  0.38746  Biso   1.000  S
  S20      1.0000 0.66135  0.32895  0.88746  Biso   1.000  S
  S21      1.0000 0.06665  0.69503  0.61301  Biso   1.000  S
  S22      1.0000 0.43335  0.80497  0.11301  Biso   1.000  S
  S23      1.0000 0.93335  0.30497  0.38699  Biso   1.000  S
  S24      1.0000 0.56665  0.19503  0.88699  Biso   1.000  S
  P1       1.0000 0.64814  0.75765  0.73263  Biso   1.000  P
  P2       1.0000 0.85186  0.74235  0.23263  Biso   1.000  P
  P3       1.0000 0.35186  0.24235  0.26737  Biso   1.000  P
  P4       1.0000 0.14814  0.25765  0.76737  Biso   1.000  P
  P5       1.0000 0.62681  0.78214  0.87162  Biso   1.000  P
  P6       1.0000 0.87319  0.71786  0.37162  Biso   1.000  P
  P7       1.0000 0.37319  0.21786  0.12838  Biso   1.000  P
  P8       1.0000 0.12681  0.28214  0.62838  Biso   1.000  P
  P9       1.0000 0.54022  0.93682  0.83955  Biso   1.000  P
  P10      1.0000 0.95978  0.56318  0.33955  Biso   1.000  P
  P11      1.0000 0.45978  0.06318  0.16045  Biso   1.000  P
  P12      1.0000 0.04022  0.43682  0.66045  Biso   1.000  P
  P13      1.0000 0.55632  0.92039  0.70058  Biso   1.000  P
  P14      1.0000 0.94368  0.57961  0.20058  Biso   1.000  P
  P15      1.0000 0.44368  0.07961  0.29942  Biso   1.000  P
  P16      1.0000 0.05632  0.42039  0.79942  Biso   1.000  P
  N1       1.0000 0.43300  0.78650  0.80700  Biso   1.000  N
  N2       1.0000 0.06700  0.71350  0.30700  Biso   1.000  N
  N3       1.0000 0.56700  0.21350  0.19300  Biso   1.000  N
  N4       1.0000 0.93300  0.28650  0.69300  Biso   1.000  N
  N5       1.0000 0.35790  0.59560  0.78000  Biso   1.000  N
  N6       1.0000 0.14210  0.90440  0.28000  Biso   1.000  N
  N7       1.0000 0.64210  0.40440  0.22000  Biso   1.000  N
  N8       1.0000 0.85790  0.09560  0.72000  Biso   1.000  N
  N9       1.0000 0.95230  0.91010  0.85250  Biso   1.000  N
  N10      1.0000 0.54770  0.58990  0.35250  Biso   1.000  N
  N11      1.0000 0.04770  0.08990  0.14750  Biso   1.000  N
  N12      1.0000 0.45230  0.41010  0.64750  Biso   1.000  N
  N13      1.0000 0.86500  0.71690  0.86220  Biso   1.000  N
  N14      1.0000 0.63500  0.78310  0.36220  Biso   1.000  N
  N15      1.0000 0.13500  0.28310  0.13780  Biso   1.000  N
  N16      1.0000 0.36500  0.21690  0.63780  Biso   1.000  N
  N17      1.0000 0.15550  0.85450  0.44500  Biso   1.000  N
  N18      1.0000 0.34450  0.64550  0.94500  Biso   1.000  N
  N19      1.0000 0.84450  0.14550  0.55500  Biso   1.000  N
  N20      1.0000 0.65550  0.35450  0.05500  Biso   1.000  N
  N21      1.0000 0.03670  0.68510  0.44300  Biso   1.000  N
  N22      1.0000 0.46330  0.81490  0.94300  Biso   1.000  N
  N23      1.0000 0.96330  0.31490  0.55700  Biso   1.000  N
  N24      1.0000 0.53670  0.18510  0.05700  Biso   1.000  N
  N25      1.0000 0.46150  0.77120  0.65620  Biso   1.000  N
  N26      1.0000 0.03850  0.72880  0.15620  Biso   1.000  N
  N27      1.0000 0.53850  0.22880  0.34380  Biso   1.000  N
  N28      1.0000 0.96150  0.27120  0.84380  Biso   1.000  N
  N29      1.0000 0.78750  0.92400  0.76040  Biso   1.000  N
  N30      1.0000 0.71250  0.57600  0.26040  Biso   1.000  N
  N31      1.0000 0.21250  0.07600  0.23960  Biso   1.000  N
  N32      1.0000 0.28750  0.42400  0.73960  Biso   1.000  N
  C1       1.0000 0.37540  0.76610  0.78610  Biso   1.000  C
  C2       1.0000 0.12460  0.73390  0.28610  Biso   1.000  C
  C3       1.0000 0.62460  0.23390  0.21390  Biso   1.000  C
  C4       1.0000 0.87540  0.26610  0.71390  Biso   1.000  C
  C5       1.0000 0.30190  0.74630  0.75860  Biso   1.000  C
  C6       1.0000 0.19810  0.75370  0.25860  Biso   1.000  C
  C7       1.0000 0.69810  0.25370  0.24140  Biso   1.000  C
  C8       1.0000 0.80190  0.24630  0.74140  Biso   1.000  C
  C9       1.0000 0.27600  0.68440  0.74930  Biso   1.000  C
  C10      1.0000 0.22400  0.81560  0.24930  Biso   1.000  C
  C11      1.0000 0.72400  0.31560  0.25070  Biso   1.000  C
  C12      1.0000 0.77600  0.18440  0.75070  Biso   1.000  C
  C13      1.0000 0.32140  0.63480  0.76640  Biso   1.000  C
  C14      1.0000 0.17860  0.86520  0.26640  Biso   1.000  C
  C15      1.0000 0.67860  0.36520  0.23360  Biso   1.000  C
  C16      1.0000 0.82140  0.13480  0.73360  Biso   1.000  C
  C17      1.0000 0.97590  0.87110  0.82510  Biso   1.000  C
  C18      1.0000 0.52410  0.62890  0.32510  Biso   1.000  C
  C19      1.0000 0.02410  0.12890  0.17490  Biso   1.000  C
  C20      1.0000 0.47590  0.37110  0.67490  Biso   1.000  C
  C21      1.0000 0.00610  0.82340  0.78990  Biso   1.000  C
  C22      1.0000 0.49390  0.67660  0.28990  Biso   1.000  C
  C23      1.0000 0.99390  0.17660  0.21010  Biso   1.000  C
  C24      1.0000 0.50610  0.32340  0.71010  Biso   1.000  C
  C25      1.0000 0.98030  0.76070  0.79600  Biso   1.000  C
  C26      1.0000 0.51970  0.73930  0.29600  Biso   1.000  C
  C27      1.0000 0.01970  0.23930  0.20400  Biso   1.000  C
  C28      1.0000 0.48030  0.26070  0.70400  Biso   1.000  C
  C29      1.0000 0.91670  0.73780  0.83410  Biso   1.000  C
  C30      1.0000 0.58330  0.76220  0.33410  Biso   1.000  C
  C31      1.0000 0.08330  0.26220  0.16590  Biso   1.000  C
  C32      1.0000 0.41670  0.23780  0.66590  Biso   1.000  C
  C33      1.0000 0.05850  0.70720  0.48910  Biso   1.000  C
  C34      1.0000 0.44150  0.79280  0.98910  Biso   1.000  C
  C35      1.0000 0.94150  0.29280  0.51090  Biso   1.000  C
  C36      1.0000 0.55850  0.20720  0.01090  Biso   1.000  C
  C37      1.0000 0.08620  0.73560  0.54490  Biso   1.000  C
  C38      1.0000 0.41380  0.76440  0.04490  Biso   1.000  C
  C39      1.0000 0.91380  0.26440  0.45510  Biso   1.000  C
  C40      1.0000 0.58620  0.23560  0.95510  Biso   1.000  C
  C41      1.0000 0.12740  0.79370  0.54540  Biso   1.000  C
  C42      1.0000 0.37260  0.70630  0.04540  Biso   1.000  C
  C43      1.0000 0.87260  0.20630  0.45460  Biso   1.000  C
  C44      1.0000 0.62740  0.29370  0.95460  Biso   1.000  C
  C45      1.0000 0.14330  0.82830  0.48970  Biso   1.000  C
  C46      1.0000 0.35670  0.67170  0.98970  Biso   1.000  C
  C47      1.0000 0.85670  0.17170  0.51030  Biso   1.000  C
  C48      1.0000 0.64330  0.32830  0.01030  Biso   1.000  C
  C49      1.0000 0.69320  0.78110  0.80610  Biso   1.000  C
  C50      1.0000 0.80680  0.71890  0.30610  Biso   1.000  C
  C51      1.0000 0.30680  0.21890  0.19390  Biso   1.000  C
  C52      1.0000 0.19320  0.28110  0.69390  Biso   1.000  C
  H1       1.0000 0.72100  0.82300  0.80160  Biso   1.000  H
  H2       1.0000 0.77900  0.67700  0.30160  Biso   1.000  H
  H3       1.0000 0.27900  0.17700  0.19840  Biso   1.000  H
  H4       1.0000 0.22100  0.32300  0.69840  Biso   1.000  H
  H5       1.0000 0.73120  0.75240  0.81550  Biso   1.000  H
  H6       1.0000 0.76880  0.74760  0.31550  Biso   1.000  H
  H7       1.0000 0.26880  0.24760  0.18450  Biso   1.000  H
  H8       1.0000 0.23120  0.25240  0.68450  Biso   1.000  H
  C53      1.0000 0.73170  0.77460  0.68060  Biso   1.000  C
  C54      1.0000 0.76830  0.72540  0.18060  Biso   1.000  C
  C55      1.0000 0.26830  0.22540  0.31940  Biso   1.000  C
  C56      1.0000 0.23170  0.27460  0.81940  Biso   1.000  C
  C57      1.0000 0.80370  0.75520  0.69180  Biso   1.000  C
  C58      1.0000 0.69630  0.74480  0.19180  Biso   1.000  C
  C59      1.0000 0.19630  0.24480  0.30820  Biso   1.000  C
  C60      1.0000 0.30370  0.25520  0.80820  Biso   1.000  C
  H9       1.0000 0.81030  0.72960  0.72550  Biso   1.000  H
  H10      1.0000 0.68970  0.77040  0.22550  Biso   1.000  H
  H11      1.0000 0.18970  0.27040  0.27450  Biso   1.000  H
  H12      1.0000 0.31030  0.22960  0.77450  Biso   1.000  H
  C61      1.0000 0.86610  0.77300  0.65410  Biso   1.000  C
  C62      1.0000 0.63390  0.72700  0.15410  Biso   1.000  C
  C63      1.0000 0.13390  0.22700  0.34590  Biso   1.000  C
  C64      1.0000 0.36610  0.27300  0.84590  Biso   1.000  C
  H13      1.0000 0.91450  0.76030  0.66270  Biso   1.000  H
  H14      1.0000 0.58550  0.73970  0.16270  Biso   1.000  H
  H15      1.0000 0.08550  0.23970  0.33730  Biso   1.000  H
  H16      1.0000 0.41450  0.26030  0.83730  Biso   1.000  H
  C65      1.0000 0.85600  0.80980  0.60400  Biso   1.000  C
  C66      1.0000 0.64400  0.69020  0.10400  Biso   1.000  C
  C67      1.0000 0.14400  0.19020  0.39600  Biso   1.000  C
  C68      1.0000 0.35600  0.30980  0.89600  Biso   1.000  C
  H17      1.0000 0.89760  0.82180  0.57810  Biso   1.000  H
  H18      1.0000 0.60240  0.67820  0.07810  Biso   1.000  H
  H19      1.0000 0.10240  0.17820  0.42190  Biso   1.000  H
  H20      1.0000 0.39760  0.32180  0.92190  Biso   1.000  H
  C69      1.0000 0.78540  0.82870  0.59190  Biso   1.000  C
  C70      1.0000 0.71460  0.67130  0.09190  Biso   1.000  C
  C71      1.0000 0.21460  0.17130  0.40810  Biso   1.000  C
  C72      1.0000 0.28540  0.32870  0.90810  Biso   1.000  C
  H21      1.0000 0.77900  0.85360  0.55770  Biso   1.000  H
  H22      1.0000 0.72100  0.64640  0.05770  Biso   1.000  H
  H23      1.0000 0.22100  0.14640  0.44230  Biso   1.000  H
  H24      1.0000 0.27900  0.35360  0.94230  Biso   1.000  H
  C73      1.0000 0.72240  0.81120  0.63010  Biso   1.000  C
  C74      1.0000 0.77760  0.68880  0.13010  Biso   1.000  C
  C75      1.0000 0.27760  0.18880  0.36990  Biso   1.000  C
  C76      1.0000 0.22240  0.31120  0.86990  Biso   1.000  C
  H25      1.0000 0.67430  0.82430  0.62140  Biso   1.000  H
  H26      1.0000 0.82570  0.67570  0.12140  Biso   1.000  H
  H27      1.0000 0.32570  0.17570  0.37860  Biso   1.000  H
  H28      1.0000 0.17430  0.32430  0.87860  Biso   1.000  H
  C77      1.0000 0.62990  0.67120  0.73350  Biso   1.000  C
  C78      1.0000 0.87010  0.82880  0.23350  Biso   1.000  C
  C79      1.0000 0.37010  0.32880  0.26650  Biso   1.000  C
  C80      1.0000 0.12990  0.17120  0.76650  Biso   1.000  C
  C81      1.0000 0.67440  0.63260  0.76610  Biso   1.000  C
  C82      1.0000 0.82560  0.86740  0.26610  Biso   1.000  C
  C83      1.0000 0.32560  0.36740  0.23390  Biso   1.000  C
  C84      1.0000 0.17440  0.13260  0.73390  Biso   1.000  C
  H29      1.0000 0.71510  0.65080  0.79020  Biso   1.000  H
  H30      1.0000 0.78490  0.84920  0.29020  Biso   1.000  H
  H31      1.0000 0.28490  0.34920  0.20980  Biso   1.000  H
  H32      1.0000 0.21510  0.15080  0.70980  Biso   1.000  H
  C85      1.0000 0.65940  0.56730  0.76330  Biso   1.000  C
  C86      1.0000 0.84060  0.93270  0.26330  Biso   1.000  C
  C87      1.0000 0.34060  0.43270  0.23670  Biso   1.000  C
  C88      1.0000 0.15940  0.06730  0.73670  Biso   1.000  C
  H33      1.0000 0.69020  0.54230  0.78530  Biso   1.000  H
  H34      1.0000 0.80980  0.95770  0.28530  Biso   1.000  H
  H35      1.0000 0.30980  0.45770  0.21470  Biso   1.000  H
  H36      1.0000 0.19020  0.04230  0.71470  Biso   1.000  H
  C89      1.0000 0.60070  0.54010  0.72900  Biso   1.000  C
  C90      1.0000 0.89930  0.95990  0.22900  Biso   1.000  C
  C91      1.0000 0.39930  0.45990  0.27100  Biso   1.000  C
  C92      1.0000 0.10070  0.04010  0.77100  Biso   1.000  C
  H37      1.0000 0.58990  0.49630  0.72800  Biso   1.000  H
  H38      1.0000 0.91010  0.00370  0.22800  Biso   1.000  H
  H39      1.0000 0.41010  0.50370  0.27200  Biso   1.000  H
  H40      1.0000 0.08990  0.99630  0.77200  Biso   1.000  H
  C93      1.0000 0.55700  0.57710  0.69540  Biso   1.000  C
  C94      1.0000 0.94300  0.92290  0.19540  Biso   1.000  C
  C95      1.0000 0.44300  0.42290  0.30460  Biso   1.000  C
  C96      1.0000 0.05700  0.07710  0.80460  Biso   1.000  C
  H41      1.0000 0.51760  0.55820  0.67040  Biso   1.000  H
  H42      1.0000 0.98240  0.94180  0.17040  Biso   1.000  H
  H43      1.0000 0.48240  0.44180  0.32960  Biso   1.000  H
  H44      1.0000 0.01760  0.05820  0.82960  Biso   1.000  H
  C97      1.0000 0.57080  0.64330  0.69850  Biso   1.000  C
  C98      1.0000 0.92920  0.85670  0.19850  Biso   1.000  C
  C99      1.0000 0.42920  0.35670  0.30150  Biso   1.000  C
  C100     1.0000 0.07080  0.14330  0.80150  Biso   1.000  C
  H45      1.0000 0.53950  0.66800  0.67650  Biso   1.000  H
  H46      1.0000 0.96050  0.83200  0.17650  Biso   1.000  H
  H47      1.0000 0.46050  0.33200  0.32350  Biso   1.000  H
  H48      1.0000 0.03950  0.16800  0.82350  Biso   1.000  H
  C101     1.0000 0.61190  0.69980  0.89680  Biso   1.000  C
  C102     1.0000 0.88810  0.80020  0.39680  Biso   1.000  C
  C103     1.0000 0.38810  0.30020  0.10320  Biso   1.000  C
  C104     1.0000 0.11190  0.19980  0.60320  Biso   1.000  C
  C105     1.0000 0.67210  0.66960  0.92110  Biso   1.000  C
  C106     1.0000 0.82790  0.83040  0.42110  Biso   1.000  C
  C107     1.0000 0.32790  0.33040  0.07890  Biso   1.000  C
  C108     1.0000 0.17210  0.16960  0.57890  Biso   1.000  C
  H49      1.0000 0.72070  0.69220  0.92660  Biso   1.000  H
  H50      1.0000 0.77930  0.80780  0.42660  Biso   1.000  H
  H51      1.0000 0.27930  0.30780  0.07340  Biso   1.000  H
  H52      1.0000 0.22070  0.19220  0.57340  Biso   1.000  H
  C109     1.0000 0.66050  0.60700  0.93690  Biso   1.000  C
  C110     1.0000 0.83950  0.89300  0.43690  Biso   1.000  C
  C111     1.0000 0.33950  0.39300  0.06310  Biso   1.000  C
  C112     1.0000 0.16050  0.10700  0.56310  Biso   1.000  C
  H53      1.0000 0.70120  0.58680  0.95250  Biso   1.000  H
  H54      1.0000 0.79880  0.91320  0.45250  Biso   1.000  H
  H55      1.0000 0.29880  0.41320  0.04750  Biso   1.000  H
  H56      1.0000 0.20120  0.08680  0.54750  Biso   1.000  H
  C113     1.0000 0.58740  0.57390  0.92960  Biso   1.000  C
  C114     1.0000 0.91260  0.92610  0.42960  Biso   1.000  C
  C115     1.0000 0.41260  0.42610  0.07040  Biso   1.000  C
  C116     1.0000 0.08740  0.07390  0.57040  Biso   1.000  C
  H57      1.0000 0.57910  0.53140  0.94050  Biso   1.000  H
  H58      1.0000 0.92090  0.96860  0.44050  Biso   1.000  H
  H59      1.0000 0.42090  0.46860  0.05950  Biso   1.000  H
  H60      1.0000 0.07910  0.03140  0.55950  Biso   1.000  H
  C117     1.0000 0.52730  0.60350  0.90630  Biso   1.000  C
  C118     1.0000 0.97270  0.89650  0.40630  Biso   1.000  C
  C119     1.0000 0.47270  0.39650  0.09370  Biso   1.000  C
  C120     1.0000 0.02730  0.10350  0.59370  Biso   1.000  C
  H61      1.0000 0.47860  0.58110  0.90110  Biso   1.000  H
  H62      1.0000 0.02140  0.91890  0.40110  Biso   1.000  H
  H63      1.0000 0.52140  0.41890  0.09890  Biso   1.000  H
  H64      1.0000 0.97860  0.08110  0.59890  Biso   1.000  H
  C121     1.0000 0.53950  0.66590  0.89080  Biso   1.000  C
  C122     1.0000 0.96050  0.83410  0.39080  Biso   1.000  C
  C123     1.0000 0.46050  0.33410  0.10920  Biso   1.000  C
  C124     1.0000 0.03950  0.16590  0.60920  Biso   1.000  C
  H65      1.0000 0.49840  0.68600  0.87590  Biso   1.000  H
  H66      1.0000 0.00160  0.81400  0.37590  Biso   1.000  H
  H67      1.0000 0.50160  0.31400  0.12410  Biso   1.000  H
  H68      1.0000 0.99840  0.18600  0.62410  Biso   1.000  H
  C125     1.0000 0.68900  0.82240  0.93060  Biso   1.000  C
  C126     1.0000 0.81100  0.67760  0.43060  Biso   1.000  C
  C127     1.0000 0.31100  0.17760  0.06940  Biso   1.000  C
  C128     1.0000 0.18900  0.32240  0.56940  Biso   1.000  C
  C129     1.0000 0.66900  0.81230  0.99150  Biso   1.000  C
  C130     1.0000 0.83100  0.68770  0.49150  Biso   1.000  C
  C131     1.0000 0.33100  0.18770  0.00850  Biso   1.000  C
  C132     1.0000 0.16900  0.31230  0.50850  Biso   1.000  C
  H69      1.0000 0.62670  0.78330  0.00150  Biso   1.000  H
  H70      1.0000 0.87330  0.71670  0.50150  Biso   1.000  H
  H71      1.0000 0.37330  0.21670  0.99850  Biso   1.000  H
  H72      1.0000 0.12670  0.28330  0.49850  Biso   1.000  H
  C133     1.0000 0.71120  0.84490  0.03780  Biso   1.000  C
  C134     1.0000 0.78880  0.65510  0.53780  Biso   1.000  C
  C135     1.0000 0.28880  0.15510  0.96220  Biso   1.000  C
  C136     1.0000 0.21120  0.34490  0.46220  Biso   1.000  C
  H73      1.0000 0.69770  0.83700  0.07860  Biso   1.000  H
  H74      1.0000 0.80230  0.66300  0.57860  Biso   1.000  H
  H75      1.0000 0.30230  0.16300  0.92140  Biso   1.000  H
  H76      1.0000 0.19770  0.33700  0.42140  Biso   1.000  H
  C137     1.0000 0.77190  0.88790  0.02390  Biso   1.000  C
  C138     1.0000 0.72810  0.61210  0.52390  Biso   1.000  C
  C139     1.0000 0.22810  0.11210  0.97610  Biso   1.000  C
  C140     1.0000 0.27190  0.38790  0.47610  Biso   1.000  C
  H77      1.0000 0.79990  0.90990  0.05500  Biso   1.000  H
  H78      1.0000 0.70010  0.59010  0.55500  Biso   1.000  H
  H79      1.0000 0.20010  0.09010  0.94500  Biso   1.000  H
  H80      1.0000 0.29990  0.40990  0.44500  Biso   1.000  H
  C141     1.0000 0.79220  0.89930  0.96420  Biso   1.000  C
  C142     1.0000 0.70780  0.60070  0.46420  Biso   1.000  C
  C143     1.0000 0.20780  0.10070  0.03580  Biso   1.000  C
  C144     1.0000 0.29220  0.39930  0.53580  Biso   1.000  C
  H81      1.0000 0.83370  0.92920  0.95470  Biso   1.000  H
  H82      1.0000 0.66630  0.57080  0.45470  Biso   1.000  H
  H83      1.0000 0.16630  0.07080  0.04530  Biso   1.000  H
  H84      1.0000 0.33370  0.42920  0.54530  Biso   1.000  H
  C145     1.0000 0.75120  0.86630  0.91770  Biso   1.000  C
  C146     1.0000 0.74880  0.63370  0.41770  Biso   1.000  C
  C147     1.0000 0.24880  0.13370  0.08230  Biso   1.000  C
  C148     1.0000 0.25120  0.36630  0.58230  Biso   1.000  C
  H85      1.0000 0.76600  0.87400  0.87720  Biso   1.000  H
  H86      1.0000 0.73400  0.62600  0.37720  Biso   1.000  H
  H87      1.0000 0.23400  0.12600  0.12280  Biso   1.000  H
  H88      1.0000 0.26600  0.37400  0.62280  Biso   1.000  H
  C149     1.0000 0.59460  0.96080  0.76960  Biso   1.000  C
  C150     1.0000 0.90540  0.53920  0.26960  Biso   1.000  C
  C151     1.0000 0.40540  0.03920  0.23040  Biso   1.000  C
  C152     1.0000 0.09460  0.46080  0.73040  Biso   1.000  C
  H89      1.0000 0.59430  0.00590  0.76400  Biso   1.000  H
  H90      1.0000 0.90570  0.49410  0.26400  Biso   1.000  H
  H91      1.0000 0.40570  0.99410  0.23600  Biso   1.000  H
  H92      1.0000 0.09430  0.50590  0.73600  Biso   1.000  H
  H93      1.0000 0.64800  0.95270  0.77500  Biso   1.000  H
  H94      1.0000 0.85200  0.54730  0.27500  Biso   1.000  H
  H95      1.0000 0.35200  0.04730  0.22500  Biso   1.000  H
  H96      1.0000 0.14800  0.45270  0.72500  Biso   1.000  H
  C153     1.0000 0.62300  0.95110  0.63970  Biso   1.000  C
  C154     1.0000 0.87700  0.54890  0.13970  Biso   1.000  C
  C155     1.0000 0.37700  0.04890  0.36030  Biso   1.000  C
  C156     1.0000 0.12300  0.45110  0.86030  Biso   1.000  C
  C157     1.0000 0.68930  0.99240  0.64890  Biso   1.000  C
  C158     1.0000 0.81070  0.50760  0.14890  Biso   1.000  C
  C159     1.0000 0.31070  0.00760  0.35110  Biso   1.000  C
  C160     1.0000 0.18930  0.49240  0.85110  Biso   1.000  C
  H97      1.0000 0.70350  0.00530  0.68840  Biso   1.000  H
  H98      1.0000 0.79650  0.49470  0.18840  Biso   1.000  H
  H99      1.0000 0.29650  0.99470  0.31160  Biso   1.000  H
  H100     1.0000 0.20350  0.50530  0.81160  Biso   1.000  H
  C161     1.0000 0.73490  0.01470  0.59970  Biso   1.000  C
  C162     1.0000 0.76510  0.48530  0.09970  Biso   1.000  C
  C163     1.0000 0.26510  0.98530  0.40030  Biso   1.000  C
  C164     1.0000 0.23490  0.51470  0.90030  Biso   1.000  C
  H101     1.0000 0.77930  0.04270  0.60630  Biso   1.000  H
  H102     1.0000 0.72070  0.45730  0.10630  Biso   1.000  H
  H103     1.0000 0.22070  0.95730  0.39370  Biso   1.000  H
  H104     1.0000 0.27930  0.54270  0.89370  Biso   1.000  H
  C165     1.0000 0.71470  0.99570  0.54200  Biso   1.000  C
  C166     1.0000 0.78530  0.50430  0.04200  Biso   1.000  C
  C167     1.0000 0.28530  0.00430  0.45800  Biso   1.000  C
  C168     1.0000 0.21470  0.49570  0.95800  Biso   1.000  C
  H105     1.0000 0.74550  0.01110  0.50920  Biso   1.000  H
  H106     1.0000 0.75450  0.48890  0.00920  Biso   1.000  H
  H107     1.0000 0.25450  0.98890  0.49080  Biso   1.000  H
  H108     1.0000 0.24550  0.51110  0.99080  Biso   1.000  H
  C169     1.0000 0.64990  0.95430  0.53130  Biso   1.000  C
  C170     1.0000 0.85010  0.54570  0.03130  Biso   1.000  C
  C171     1.0000 0.35010  0.04570  0.46870  Biso   1.000  C
  C172     1.0000 0.14990  0.45430  0.96870  Biso   1.000  C
  H109     1.0000 0.63680  0.94130  0.49160  Biso   1.000  H
  H110     1.0000 0.86320  0.55870  0.99160  Biso   1.000  H
  H111     1.0000 0.36320  0.05870  0.50840  Biso   1.000  H
  H112     1.0000 0.13680  0.44130  0.00840  Biso   1.000  H
  C173     1.0000 0.60380  0.93190  0.58040  Biso   1.000  C
  C174     1.0000 0.89620  0.56810  0.08040  Biso   1.000  C
  C175     1.0000 0.39620  0.06810  0.41960  Biso   1.000  C
  C176     1.0000 0.10380  0.43190  0.91960  Biso   1.000  C
  H113     1.0000 0.55970  0.90370  0.57350  Biso   1.000  H
  H114     1.0000 0.94030  0.59630  0.07350  Biso   1.000  H
  H115     1.0000 0.44030  0.09630  0.42650  Biso   1.000  H
  H116     1.0000 0.05970  0.40370  0.92650  Biso   1.000  H
  C177     1.0000 0.47100  0.95970  0.68030  Biso   1.000  C
  C178     1.0000 0.02900  0.54030  0.18030  Biso   1.000  C
  C179     1.0000 0.52900  0.04030  0.31970  Biso   1.000  C
  C180     1.0000 0.97100  0.45970  0.81970  Biso   1.000  C
  C181     1.0000 0.47730  0.02380  0.66980  Biso   1.000  C
  C182     1.0000 0.02270  0.47620  0.16980  Biso   1.000  C
  C183     1.0000 0.52270  0.97620  0.33020  Biso   1.000  C
  C184     1.0000 0.97730  0.52380  0.83020  Biso   1.000  C
  H117     1.0000 0.52520  0.04770  0.67440  Biso   1.000  H
  H118     1.0000 0.97480  0.45230  0.17440  Biso   1.000  H
  H119     1.0000 0.47480  0.95230  0.32560  Biso   1.000  H
  H120     1.0000 0.02520  0.54770  0.82560  Biso   1.000  H
  C185     1.0000 0.41350  0.05330  0.65270  Biso   1.000  C
  C186     1.0000 0.08650  0.44670  0.15270  Biso   1.000  C
  C187     1.0000 0.58650  0.94670  0.34730  Biso   1.000  C
  C188     1.0000 0.91350  0.55330  0.84730  Biso   1.000  C
  H121     1.0000 0.41840  0.09680  0.64660  Biso   1.000  H
  H122     1.0000 0.08160  0.40320  0.14660  Biso   1.000  H
  H123     1.0000 0.58160  0.90320  0.35340  Biso   1.000  H
  H124     1.0000 0.91840  0.59680  0.85340  Biso   1.000  H
  C189     1.0000 0.34330  0.01820  0.64490  Biso   1.000  C
  C190     1.0000 0.15670  0.48180  0.14490  Biso   1.000  C
  C191     1.0000 0.65670  0.98180  0.35510  Biso   1.000  C
  C192     1.0000 0.84330  0.51820  0.85510  Biso   1.000  C
  H125     1.0000 0.30030  0.03750  0.63260  Biso   1.000  H
  H126     1.0000 0.19970  0.46250  0.13260  Biso   1.000  H
  H127     1.0000 0.69970  0.96250  0.36740  Biso   1.000  H
  H128     1.0000 0.80030  0.53750  0.86740  Biso   1.000  H
  C193     1.0000 0.33670  0.95560  0.65490  Biso   1.000  C
  C194     1.0000 0.16330  0.54440  0.15490  Biso   1.000  C
  C195     1.0000 0.66330  0.04440  0.34510  Biso   1.000  C
  C196     1.0000 0.83670  0.45560  0.84510  Biso   1.000  C
  H129     1.0000 0.28890  0.93180  0.64970  Biso   1.000  H
  H130     1.0000 0.21110  0.56820  0.14970  Biso   1.000  H
  H131     1.0000 0.71110  0.06820  0.35030  Biso   1.000  H
  H132     1.0000 0.78890  0.43180  0.85030  Biso   1.000  H
  C197     1.0000 0.39990  0.92610  0.67300  Biso   1.000  C
  C198     1.0000 0.10010  0.57390  0.17300  Biso   1.000  C
  C199     1.0000 0.60010  0.07390  0.32700  Biso   1.000  C
  C200     1.0000 0.89990  0.42610  0.82700  Biso   1.000  C
  H133     1.0000 0.39380  0.88280  0.68020  Biso   1.000  H
  H134     1.0000 0.10620  0.61720  0.18020  Biso   1.000  H
  H135     1.0000 0.60620  0.11720  0.31980  Biso   1.000  H
  H136     1.0000 0.89380  0.38280  0.81980  Biso   1.000  H
  C201     1.0000 0.59730  0.98030  0.89920  Biso   1.000  C
  C202     1.0000 0.90270  0.51970  0.39920  Biso   1.000  C
  C203     1.0000 0.40270  0.01970  0.10080  Biso   1.000  C
  C204     1.0000 0.09730  0.48030  0.60080  Biso   1.000  C
  C205     1.0000 0.57920  0.96490  0.95900  Biso   1.000  C
  C206     1.0000 0.92080  0.53510  0.45900  Biso   1.000  C
  C207     1.0000 0.42080  0.03510  0.04100  Biso   1.000  C
  C208     1.0000 0.07920  0.46490  0.54100  Biso   1.000  C
  H137     1.0000 0.53980  0.93270  0.96730  Biso   1.000  H
  H138     1.0000 0.96020  0.56730  0.46730  Biso   1.000  H
  H139     1.0000 0.46020  0.06730  0.03270  Biso   1.000  H
  H140     1.0000 0.03980  0.43270  0.53270  Biso   1.000  H
  C209     1.0000 0.61840  0.99660  0.00700  Biso   1.000  C
  C210     1.0000 0.88160  0.50340  0.50700  Biso   1.000  C
  C211     1.0000 0.38160  0.00340  0.99300  Biso   1.000  C
  C212     1.0000 0.11840  0.49660  0.49300  Biso   1.000  C
  H141     1.0000 0.60610  0.98490  0.04720  Biso   1.000  H
  H142     1.0000 0.89390  0.51510  0.54720  Biso   1.000  H
  H143     1.0000 0.39390  0.01510  0.95280  Biso   1.000  H
  H144     1.0000 0.10610  0.48490  0.45280  Biso   1.000  H
  C213     1.0000 0.67430  0.04420  0.99560  Biso   1.000  C
  C214     1.0000 0.82570  0.45580  0.49560  Biso   1.000  C
  C215     1.0000 0.32570  0.95580  0.00440  Biso   1.000  C
  C216     1.0000 0.17430  0.54420  0.50440  Biso   1.000  C
  H145     1.0000 0.69980  0.06630  0.02790  Biso   1.000  H
  H146     1.0000 0.80020  0.43370  0.52790  Biso   1.000  H
  H147     1.0000 0.30020  0.93370  0.97210  Biso   1.000  H
  H148     1.0000 0.19980  0.56630  0.47210  Biso   1.000  H
  C217     1.0000 0.69320  0.05980  0.93750  Biso   1.000  C
  C218     1.0000 0.80680  0.44020  0.43750  Biso   1.000  C
  C219     1.0000 0.30680  0.94020  0.06250  Biso   1.000  C
  C220     1.0000 0.19320  0.55980  0.56250  Biso   1.000  C
  H149     1.0000 0.73190  0.09290  0.92990  Biso   1.000  H
  H150     1.0000 0.76810  0.40710  0.42990  Biso   1.000  H
  H151     1.0000 0.26810  0.90710  0.07010  Biso   1.000  H
  H152     1.0000 0.23190  0.59290  0.57010  Biso   1.000  H
  C221     1.0000 0.65630  0.02770  0.88890  Biso   1.000  C
  C222     1.0000 0.84370  0.47230  0.38890  Biso   1.000  C
  C223     1.0000 0.34370  0.97230  0.11110  Biso   1.000  C
  C224     1.0000 0.15630  0.52770  0.61110  Biso   1.000  C
  H153     1.0000 0.67140  0.03820  0.84900  Biso   1.000  H
  H154     1.0000 0.82860  0.46180  0.34900  Biso   1.000  H
  H155     1.0000 0.32860  0.96180  0.15100  Biso   1.000  H
  H156     1.0000 0.17140  0.53820  0.65100  Biso   1.000  H
  C225     1.0000 0.45440  0.97920  0.83420  Biso   1.000  C
  C226     1.0000 0.04560  0.52080  0.33420  Biso   1.000  C
  C227     1.0000 0.54560  0.02080  0.16580  Biso   1.000  C
  C228     1.0000 0.95440  0.47920  0.66580  Biso   1.000  C
  C229     1.0000 0.46000  0.04460  0.83240  Biso   1.000  C
  C230     1.0000 0.04000  0.45540  0.33240  Biso   1.000  C
  C231     1.0000 0.54000  0.95540  0.16760  Biso   1.000  C
  C232     1.0000 0.96000  0.54460  0.66760  Biso   1.000  C
  H157     1.0000 0.50860  0.06800  0.83320  Biso   1.000  H
  H158     1.0000 0.99140  0.43200  0.33320  Biso   1.000  H
  H159     1.0000 0.49140  0.93200  0.16680  Biso   1.000  H
  H160     1.0000 0.00860  0.56800  0.66680  Biso   1.000  H
  C233     1.0000 0.39430  0.07540  0.82960  Biso   1.000  C
  C234     1.0000 0.10570  0.42460  0.32960  Biso   1.000  C
  C235     1.0000 0.60570  0.92460  0.17040  Biso   1.000  C
  C236     1.0000 0.89430  0.57540  0.67040  Biso   1.000  C
  H161     1.0000 0.39880  0.11940  0.82870  Biso   1.000  H
  H162     1.0000 0.10120  0.38060  0.32870  Biso   1.000  H
  H163     1.0000 0.60120  0.88060  0.17130  Biso   1.000  H
  H164     1.0000 0.89880  0.61940  0.67130  Biso   1.000  H
  C237     1.0000 0.32260  0.04150  0.82800  Biso   1.000  C
  C238     1.0000 0.17740  0.45850  0.32800  Biso   1.000  C
  C239     1.0000 0.67740  0.95850  0.17200  Biso   1.000  C
  C240     1.0000 0.82260  0.54150  0.67200  Biso   1.000  C
  H165     1.0000 0.27840  0.06250  0.82570  Biso   1.000  H
  H166     1.0000 0.22160  0.43750  0.32570  Biso   1.000  H
  H167     1.0000 0.72160  0.93750  0.17430  Biso   1.000  H
  H168     1.0000 0.77840  0.56250  0.67430  Biso   1.000  H
  C241     1.0000 0.31550  0.97720  0.82980  Biso   1.000  C
  C242     1.0000 0.18450  0.52280  0.32980  Biso   1.000  C
  C243     1.0000 0.68450  0.02280  0.17020  Biso   1.000  C
  C244     1.0000 0.81550  0.47720  0.67020  Biso   1.000  C
  H169     1.0000 0.26640  0.95450  0.82860  Biso   1.000  H
  H170     1.0000 0.23360  0.54550  0.32860  Biso   1.000  H
  H171     1.0000 0.73360  0.04550  0.17140  Biso   1.000  H
  H172     1.0000 0.76640  0.45450  0.67140  Biso   1.000  H
  C245     1.0000 0.38120  0.94490  0.83350  Biso   1.000  C
  C246     1.0000 0.11880  0.55510  0.33350  Biso   1.000  C
  C247     1.0000 0.61880  0.05510  0.16650  Biso   1.000  C
  C248     1.0000 0.88120  0.44490  0.66650  Biso   1.000  C
  H173     1.0000 0.37600  0.90100  0.83550  Biso   1.000  H
  H174     1.0000 0.12400  0.59900  0.33550  Biso   1.000  H
  H175     1.0000 0.62400  0.09900  0.16450  Biso   1.000  H
  H176     1.0000 0.87600  0.40100  0.66450  Biso   1.000  H
  C249     1.0000 0.41070  0.75280  0.62690  Biso   1.000  C
  C250     1.0000 0.08930  0.74720  0.12690  Biso   1.000  C
  C251     1.0000 0.58930  0.24720  0.37310  Biso   1.000  C
  C252     1.0000 0.91070  0.25280  0.87310  Biso   1.000  C
  C253     1.0000 0.34290  0.72990  0.58960  Biso   1.000  C
  C254     1.0000 0.15710  0.77010  0.08960  Biso   1.000  C
  C255     1.0000 0.65710  0.27010  0.41040  Biso   1.000  C
  C256     1.0000 0.84290  0.22990  0.91040  Biso   1.000  C
  H177     1.0000 0.29710  0.74360  0.60750  Biso   1.000  H
  H178     1.0000 0.20290  0.75640  0.10750  Biso   1.000  H
  H179     1.0000 0.70290  0.25640  0.39250  Biso   1.000  H
  H180     1.0000 0.79710  0.24360  0.89250  Biso   1.000  H
  H181     1.0000 0.33770  0.68460  0.58810  Biso   1.000  H
  H182     1.0000 0.16230  0.81540  0.08810  Biso   1.000  H
  H183     1.0000 0.66230  0.31540  0.41190  Biso   1.000  H
  H184     1.0000 0.83770  0.18460  0.91190  Biso   1.000  H
  H185     1.0000 0.34950  0.74660  0.54890  Biso   1.000  H
  H186     1.0000 0.15050  0.75340  0.04890  Biso   1.000  H
  H187     1.0000 0.65050  0.25340  0.45110  Biso   1.000  H
  H188     1.0000 0.84950  0.24660  0.95110  Biso   1.000  H
  C257     1.0000 0.84150  0.93730  0.73130  Biso   1.000  C
  C258     1.0000 0.65850  0.56270  0.23130  Biso   1.000  C
  C259     1.0000 0.15850  0.06270  0.26870  Biso   1.000  C
  C260     1.0000 0.34150  0.43730  0.76870  Biso   1.000  C
  C261     1.0000 0.90900  0.95530  0.69380  Biso   1.000  C
  C262     1.0000 0.59100  0.54470  0.19380  Biso   1.000  C
  C263     1.0000 0.09100  0.04470  0.30620  Biso   1.000  C
  C264     1.0000 0.40900  0.45530  0.80620  Biso   1.000  C
  H189     1.0000 0.93700  0.99310  0.71000  Biso   1.000  H
  H190     1.0000 0.56300  0.50690  0.21000  Biso   1.000  H
  H191     1.0000 0.06300  0.00690  0.29000  Biso   1.000  H
  H192     1.0000 0.43700  0.49310  0.79000  Biso   1.000  H
  H193     1.0000 0.89290  0.96290  0.65270  Biso   1.000  H
  H194     1.0000 0.60710  0.53710  0.15270  Biso   1.000  H
  H195     1.0000 0.10710  0.03710  0.34730  Biso   1.000  H
  H196     1.0000 0.39290  0.46290  0.84730  Biso   1.000  H
  H197     1.0000 0.94180  0.92200  0.69390  Biso   1.000  H
  H198     1.0000 0.55820  0.57800  0.19390  Biso   1.000  H
  H199     1.0000 0.05820  0.07800  0.30610  Biso   1.000  H
  H200     1.0000 0.44180  0.42200  0.80610  Biso   1.000  H
  O1       1.0000 0.49700  0.63700  0.50900  Biso   1.000  O
  O2       1.0000 0.00300  0.86300  0.00900  Biso   1.000  O
  O3       1.0000 0.50300  0.36300  0.49100  Biso   1.000  O
  O4       1.0000 0.99700  0.13700  0.99100  Biso   1.000  O
  C265     1.0000 0.42500  0.60900  0.48300  Biso   1.000  C
  C266     1.0000 0.07500  0.89100  0.98300  Biso   1.000  C
  C267     1.0000 0.57500  0.39100  0.51700  Biso   1.000  C
  C268     1.0000 0.92500  0.10900  0.01700  Biso   1.000  C
  H201     1.0000 0.42730  0.61140  0.43900  Biso   1.000  H
  H202     1.0000 0.07270  0.88860  0.93900  Biso   1.000  H
  H203     1.0000 0.57270  0.38860  0.56100  Biso   1.000  H
  H204     1.0000 0.92730  0.11140  0.06100  Biso   1.000  H
  H205     1.0000 0.38300  0.63120  0.49760  Biso   1.000  H
  H206     1.0000 0.11700  0.86880  0.99760  Biso   1.000  H
  H207     1.0000 0.61700  0.36880  0.50240  Biso   1.000  H
  H208     1.0000 0.88300  0.13120  0.00240  Biso   1.000  H
  C269     1.0000 0.41400  0.54100  0.50400  Biso   1.000  C
  C270     1.0000 0.08600  0.95900  0.00400  Biso   1.000  C
  C271     1.0000 0.58600  0.45900  0.49600  Biso   1.000  C
  C272     1.0000 0.91400  0.04100  0.99600  Biso   1.000  C
  H209     1.0000 0.36190  0.52390  0.49570  Biso   1.000  H
  H210     1.0000 0.13810  0.97610  0.99570  Biso   1.000  H
  H211     1.0000 0.63810  0.47610  0.50430  Biso   1.000  H
  H212     1.0000 0.86190  0.02390  0.00430  Biso   1.000  H
  H213     1.0000 0.42440  0.53930  0.54690  Biso   1.000  H
  H214     1.0000 0.07560  0.96070  0.04690  Biso   1.000  H
  H215     1.0000 0.57560  0.46070  0.45310  Biso   1.000  H
  H216     1.0000 0.92440  0.03930  0.95310  Biso   1.000  H
  H217     1.0000 0.44940  0.51790  0.48190  Biso   1.000  H
  H218     1.0000 0.05060  0.98210  0.98190  Biso   1.000  H
  H219     1.0000 0.55060  0.48210  0.51810  Biso   1.000  H
  H220     1.0000 0.94940  0.01790  0.01810  Biso   1.000  H
  C273     1.0000 0.51300  0.70100  0.49200  Biso   1.000  C
  C274     1.0000 0.98700  0.79900  0.99200  Biso   1.000  C
  C275     1.0000 0.48700  0.29900  0.50800  Biso   1.000  C
  C276     1.0000 0.01300  0.20100  0.00800  Biso   1.000  C
  H221     1.0000 0.47300  0.72530  0.50790  Biso   1.000  H
  H222     1.0000 0.02700  0.77470  0.00790  Biso   1.000  H
  H223     1.0000 0.52700  0.27470  0.49210  Biso   1.000  H
  H224     1.0000 0.97300  0.22530  0.99210  Biso   1.000  H
  H225     1.0000 0.51480  0.70550  0.44810  Biso   1.000  H
  H226     1.0000 0.98520  0.79450  0.94810  Biso   1.000  H
  H227     1.0000 0.48520  0.29450  0.55190  Biso   1.000  H
  H228     1.0000 0.01480  0.20550  0.05190  Biso   1.000  H
  C277     1.0000 0.59000  0.72500  0.52000  Biso   1.000  C
  C278     1.0000 0.91000  0.77500  0.02000  Biso   1.000  C
  C279     1.0000 0.41000  0.27500  0.48000  Biso   1.000  C
  C280     1.0000 0.09000  0.22500  0.98000  Biso   1.000  C
  H229     1.0000 0.61310  0.76060  0.49670  Biso   1.000  H
  H230     1.0000 0.88690  0.73940  0.99670  Biso   1.000  H
  H231     1.0000 0.38690  0.23940  0.50330  Biso   1.000  H
  H232     1.0000 0.11310  0.26060  0.00330  Biso   1.000  H
  H233     1.0000 0.62350  0.69190  0.51850  Biso   1.000  H
  H234     1.0000 0.87650  0.80810  0.01850  Biso   1.000  H
  H235     1.0000 0.37650  0.30810  0.48150  Biso   1.000  H
  H236     1.0000 0.12350  0.19190  0.98150  Biso   1.000  H
  H237     1.0000 0.58290  0.73730  0.56140  Biso   1.000  H
  H238     1.0000 0.91710  0.76270  0.06140  Biso   1.000  H
  H239     1.0000 0.41710  0.26270  0.43860  Biso   1.000  H
  H240     1.0000 0.08290  0.23730  0.93860  Biso   1.000  H
  O5       1.0000 0.47830  0.65410  0.54150  Biso   1.000  O
  O6       1.0000 0.02170  0.84590  0.04150  Biso   1.000  O
  O7       1.0000 0.52170  0.34590  0.45850  Biso   1.000  O
  O8       1.0000 0.97830  0.15410  0.95850  Biso   1.000  O
  C281     1.0000 0.46300  0.58730  0.53500  Biso   1.000  C
  C282     1.0000 0.03700  0.91270  0.03500  Biso   1.000  C
  C283     1.0000 0.53700  0.41270  0.46500  Biso   1.000  C
  C284     1.0000 0.96300  0.08730  0.96500  Biso   1.000  C
  H241     1.0000 0.50950  0.56740  0.54380  Biso   1.000  H
  H242     1.0000 0.99050  0.93260  0.04380  Biso   1.000  H
  H243     1.0000 0.49050  0.43260  0.45620  Biso   1.000  H
  H244     1.0000 0.00950  0.06740  0.95620  Biso   1.000  H
  H245     1.0000 0.44640  0.57640  0.49360  Biso   1.000  H
  H246     1.0000 0.05360  0.92360  0.99360  Biso   1.000  H
  H247     1.0000 0.55360  0.42360  0.50640  Biso   1.000  H
  H248     1.0000 0.94640  0.07640  0.00640  Biso   1.000  H
  C285     1.0000 0.40000  0.56600  0.58000  Biso   1.000  C
  C286     1.0000 0.10000  0.93400  0.08000  Biso   1.000  C
  C287     1.0000 0.60000  0.43400  0.42000  Biso   1.000  C
  C288     1.0000 0.90000  0.06600  0.92000  Biso   1.000  C
  H249     1.0000 0.40160  0.59550  0.61340  Biso   1.000  H
  H250     1.0000 0.09840  0.90450  0.11340  Biso   1.000  H
  H251     1.0000 0.59840  0.40450  0.38660  Biso   1.000  H
  H252     1.0000 0.90160  0.09550  0.88660  Biso   1.000  H
  H253     1.0000 0.40760  0.52490  0.59540  Biso   1.000  H
  H254     1.0000 0.09240  0.97510  0.09540  Biso   1.000  H
  H255     1.0000 0.59240  0.47510  0.40460  Biso   1.000  H
  H256     1.0000 0.90760  0.02490  0.90460  Biso   1.000  H
  H257     1.0000 0.35050  0.56400  0.56000  Biso   1.000  H
  H258     1.0000 0.14950  0.93600  0.06000  Biso   1.000  H
  H259     1.0000 0.64950  0.43600  0.44000  Biso   1.000  H
  H260     1.0000 0.85050  0.06400  0.94000  Biso   1.000  H
  C289     1.0000 0.54000  0.67990  0.50300  Biso   1.000  C
  C290     1.0000 0.96000  0.82010  0.00300  Biso   1.000  C
  C291     1.0000 0.46000  0.32010  0.49700  Biso   1.000  C
  C292     1.0000 0.04000  0.17990  0.99700  Biso   1.000  C
  H261     1.0000 0.52530  0.67390  0.46080  Biso   1.000  H
  H262     1.0000 0.97470  0.82610  0.96080  Biso   1.000  H
  H263     1.0000 0.47470  0.32610  0.53920  Biso   1.000  H
  H264     1.0000 0.02530  0.17390  0.03920  Biso   1.000  H
  H265     1.0000 0.58540  0.65840  0.51100  Biso   1.000  H
  H266     1.0000 0.91460  0.84160  0.01100  Biso   1.000  H
  H267     1.0000 0.41460  0.34160  0.48900  Biso   1.000  H
  H268     1.0000 0.08540  0.15840  0.98900  Biso   1.000  H
  C293     1.0000 0.55800  0.74850  0.51680  Biso   1.000  C
  C294     1.0000 0.94200  0.75150  0.01680  Biso   1.000  C
  C295     1.0000 0.44200  0.25150  0.48320  Biso   1.000  C
  C296     1.0000 0.05800  0.24850  0.98320  Biso   1.000  C
  H269     1.0000 0.53170  0.77240  0.48760  Biso   1.000  H
  H270     1.0000 0.96830  0.72760  0.98760  Biso   1.000  H
  H271     1.0000 0.46830  0.22760  0.51240  Biso   1.000  H
  H272     1.0000 0.03170  0.27240  0.01240  Biso   1.000  H
  H273     1.0000 0.61270  0.76020  0.51410  Biso   1.000  H
  H274     1.0000 0.88730  0.73980  0.01410  Biso   1.000  H
  H275     1.0000 0.38730  0.23980  0.48590  Biso   1.000  H
  H276     1.0000 0.11270  0.26020  0.98590  Biso   1.000  H
  H277     1.0000 0.54020  0.75710  0.55730  Biso   1.000  H
  H278     1.0000 0.95980  0.74290  0.05730  Biso   1.000  H
  H279     1.0000 0.45980  0.24290  0.44270  Biso   1.000  H
  H280     1.0000 0.04020  0.25710  0.94270  Biso   1.000  H
  O9       1.0000 0.35400  0.78550  0.44780  Biso   1.000  O
  O10      1.0000 0.14600  0.71450  0.94780  Biso   1.000  O
  O11      1.0000 0.64600  0.21450  0.55220  Biso   1.000  O
  O12      1.0000 0.85400  0.28550  0.05220  Biso   1.000  O
  C297     1.0000 0.42400  0.87870  0.48240  Biso   1.000  C
  C298     1.0000 0.07600  0.62130  0.98240  Biso   1.000  C
  C299     1.0000 0.57600  0.12130  0.51760  Biso   1.000  C
  C300     1.0000 0.92400  0.37870  0.01760  Biso   1.000  C
  H281     1.0000 0.44600  0.92020  0.47020  Biso   1.000  H
  H282     1.0000 0.05400  0.57980  0.97020  Biso   1.000  H
  H283     1.0000 0.55400  0.07980  0.52980  Biso   1.000  H
  H284     1.0000 0.94600  0.42020  0.02980  Biso   1.000  H
  H285     1.0000 0.46400  0.85580  0.49840  Biso   1.000  H
  H286     1.0000 0.03600  0.64420  0.99840  Biso   1.000  H
  H287     1.0000 0.53600  0.14420  0.50160  Biso   1.000  H
  H288     1.0000 0.96400  0.35580  0.00160  Biso   1.000  H
  H289     1.0000 0.38540  0.88220  0.51340  Biso   1.000  H
  H290     1.0000 0.11460  0.61780  0.01340  Biso   1.000  H
  H291     1.0000 0.61460  0.11780  0.48660  Biso   1.000  H
  H292     1.0000 0.88540  0.38220  0.98660  Biso   1.000  H
  C301     1.0000 0.38860  0.84570  0.43040  Biso   1.000  C
  C302     1.0000 0.11140  0.65430  0.93040  Biso   1.000  C
  C303     1.0000 0.61140  0.15430  0.56960  Biso   1.000  C
  C304     1.0000 0.88860  0.34570  0.06960  Biso   1.000  C
  H293     1.0000 0.34960  0.86980  0.41310  Biso   1.000  H
  H294     1.0000 0.15040  0.63020  0.91310  Biso   1.000  H
  H295     1.0000 0.65040  0.13020  0.58690  Biso   1.000  H
  H296     1.0000 0.84960  0.36980  0.08690  Biso   1.000  H
  H297     1.0000 0.42760  0.84150  0.39930  Biso   1.000  H
  H298     1.0000 0.07240  0.65850  0.89930  Biso   1.000  H
  H299     1.0000 0.57240  0.15850  0.60070  Biso   1.000  H
  H300     1.0000 0.92760  0.34150  0.10070  Biso   1.000  H
  C305     1.0000 0.31980  0.74980  0.39940  Biso   1.000  C
  C306     1.0000 0.18020  0.75020  0.89940  Biso   1.000  C
  C307     1.0000 0.68020  0.25020  0.60060  Biso   1.000  C
  C308     1.0000 0.81980  0.24980  0.10060  Biso   1.000  C
  H301     1.0000 0.35930  0.74290  0.36950  Biso   1.000  H
  H302     1.0000 0.14070  0.75710  0.86950  Biso   1.000  H
  H303     1.0000 0.64070  0.25710  0.63050  Biso   1.000  H
  H304     1.0000 0.85930  0.24290  0.13050  Biso   1.000  H
  H305     1.0000 0.28220  0.77340  0.37950  Biso   1.000  H
  H306     1.0000 0.21780  0.72660  0.87950  Biso   1.000  H
  H307     1.0000 0.71780  0.22660  0.62050  Biso   1.000  H
  H308     1.0000 0.78220  0.27340  0.12050  Biso   1.000  H
  C309     1.0000 0.28220  0.69050  0.41910  Biso   1.000  C
  C310     1.0000 0.21780  0.80950  0.91910  Biso   1.000  C
  C311     1.0000 0.71780  0.30950  0.58090  Biso   1.000  C
  C312     1.0000 0.78220  0.19050  0.08090  Biso   1.000  C
  H309     1.0000 0.29070  0.68550  0.46220  Biso   1.000  H
  H310     1.0000 0.20930  0.81450  0.96220  Biso   1.000  H
  H311     1.0000 0.70930  0.31450  0.53780  Biso   1.000  H
  H312     1.0000 0.79070  0.18550  0.03780  Biso   1.000  H
  H313     1.0000 0.30300  0.65710  0.39710  Biso   1.000  H
  H314     1.0000 0.19700  0.84290  0.89710  Biso   1.000  H
  H315     1.0000 0.69700  0.34290  0.60290  Biso   1.000  H
  H316     1.0000 0.80300  0.15710  0.10290  Biso   1.000  H
  H317     1.0000 0.22760  0.68870  0.41130  Biso   1.000  H
  H318     1.0000 0.27240  0.81130  0.91130  Biso   1.000  H
  H319     1.0000 0.77240  0.31130  0.58870  Biso   1.000  H
  H320     1.0000 0.72760  0.18870  0.08870  Biso   1.000  H
